 JellyRoll                                                               
                         ls-dyna smp.129956 d           date 08/27/2018

{BEGIN LEGEND}
 Entity #        Title
        1                                                                          
        3     RigidWallPlan_4                                                      
{END LEGEND}



    time       wall#   normal-force    x-force        y-force        z-force
 0.00000E+00       1   0.000000E+00   0.000000E+00   0.000000E+00   0.000000E+00
 0.00000E+00       3   0.000000E+00   0.000000E+00   0.000000E+00   0.000000E+00
 9.97161E-05       1   0.000000E+00   0.000000E+00   0.000000E+00   0.000000E+00
 9.97161E-05       3   2.474120E-27   1.444774E-28  -3.822244E-30   2.455368E-27
 1.99787E-04       1   0.000000E+00   0.000000E+00   0.000000E+00   0.000000E+00
 1.99787E-04       3   2.344537E-27   8.617259E-29   9.464311E-31   2.340141E-27
 2.99858E-04       1   0.000000E+00   0.000000E+00   0.000000E+00   0.000000E+00
 2.99858E-04       3   1.203004E-27  -3.053757E-29  -1.482942E-29   1.203004E-27
 3.99929E-04       1   0.000000E+00   0.000000E+00   0.000000E+00   0.000000E+00
 3.99929E-04       3   1.744406E-28   1.444639E-29   1.442566E-30   1.744406E-28
 4.99645E-04       1   0.000000E+00   0.000000E+00   0.000000E+00   0.000000E+00
 4.99645E-04       3   4.403666E-28   4.335711E-29  -6.113807E-31   4.402624E-28
 5.99716E-04       1   0.000000E+00   0.000000E+00   0.000000E+00   0.000000E+00
 5.99716E-04       3   6.754812E-28  -5.137745E-29   1.403447E-29   6.754812E-28
 6.99787E-04       1   0.000000E+00   0.000000E+00   0.000000E+00   0.000000E+00
 6.99787E-04       3   1.134094E-28   9.608204E-30   6.012167E-30   1.134094E-28
 7.99858E-04       1   0.000000E+00   0.000000E+00   0.000000E+00   0.000000E+00
 7.99858E-04       3   0.000000E+00   0.000000E+00   0.000000E+00   0.000000E+00
 8.99929E-04       1   0.000000E+00   0.000000E+00   0.000000E+00   0.000000E+00
 8.99929E-04       3   0.000000E+00   0.000000E+00   0.000000E+00   0.000000E+00
 9.99645E-04       1   0.000000E+00   0.000000E+00   0.000000E+00   0.000000E+00
 9.99645E-04       3   0.000000E+00   0.000000E+00   0.000000E+00   0.000000E+00
 1.09972E-03       1   0.000000E+00   0.000000E+00   0.000000E+00   0.000000E+00
 1.09972E-03       3   0.000000E+00   0.000000E+00   0.000000E+00   0.000000E+00
 1.19979E-03       1   0.000000E+00   0.000000E+00   0.000000E+00   0.000000E+00
 1.19979E-03       3   0.000000E+00   0.000000E+00   0.000000E+00   0.000000E+00
 1.29986E-03       1   0.000000E+00   0.000000E+00   0.000000E+00   0.000000E+00
 1.29986E-03       3   0.000000E+00   0.000000E+00   0.000000E+00   0.000000E+00
 1.39993E-03       1   0.000000E+00   0.000000E+00   0.000000E+00   0.000000E+00
 1.39993E-03       3   0.000000E+00   0.000000E+00   0.000000E+00   0.000000E+00
 1.49965E-03       1   0.000000E+00   0.000000E+00   0.000000E+00   0.000000E+00
 1.49965E-03       3   0.000000E+00   0.000000E+00   0.000000E+00   0.000000E+00
 1.59972E-03       1   0.000000E+00   0.000000E+00   0.000000E+00   0.000000E+00
 1.59972E-03       3   0.000000E+00   0.000000E+00   0.000000E+00   0.000000E+00
 1.69979E-03       1   0.000000E+00   0.000000E+00   0.000000E+00   0.000000E+00
 1.69979E-03       3   0.000000E+00   0.000000E+00   0.000000E+00   0.000000E+00
 1.79986E-03       1   0.000000E+00   0.000000E+00   0.000000E+00   0.000000E+00
 1.79986E-03       3   0.000000E+00   0.000000E+00   0.000000E+00   0.000000E+00
 1.89993E-03       1   0.000000E+00   0.000000E+00   0.000000E+00   0.000000E+00
 1.89993E-03       3   0.000000E+00   0.000000E+00   0.000000E+00   0.000000E+00
 1.99965E-03       1   0.000000E+00   0.000000E+00   0.000000E+00   0.000000E+00
 1.99965E-03       3   0.000000E+00   0.000000E+00   0.000000E+00   0.000000E+00
 2.09972E-03       1   9.809489E+00   1.529474E-05   4.040423E-08  -9.809489E+00
 2.09972E-03       3   3.312140E-01  -6.432748E-05  -2.921562E-04   3.323395E-01
 2.19979E-03       1   1.117466E+01   4.093077E-06   3.293752E-07  -1.117466E+01
 2.19979E-03       3   9.884425E+00  -1.861560E-03   1.507590E-02   9.884425E+00
 2.29986E-03       1   1.237422E+01  -1.050225E-06   1.467815E-06  -1.237422E+01
 2.29986E-03       3   2.372196E+01   9.206042E-03   4.654130E-02   2.372196E+01
 2.39993E-03       1   1.358037E+01  -7.997222E-07   4.403924E-06  -1.358037E+01
 2.39993E-03       3   3.013017E+01  -2.236355E-03   3.450484E-02   3.013017E+01
 2.49965E-03       1   1.482636E+01  -2.462475E-06   1.099754E-05  -1.482636E+01
 2.49965E-03       3   3.267174E+01  -9.958554E-04   4.855298E-02   3.267174E+01
 2.59972E-03       1   1.612258E+01  -6.196758E-06   2.181356E-05  -1.612258E+01
 2.59972E-03       3   2.233925E+01  -3.894342E-03   3.400244E-02   2.233925E+01
 2.69979E-03       1   1.803001E+01  -2.791791E-06   3.741347E-05  -1.803001E+01
 2.69979E-03       3   2.035426E+01   6.627003E-04   3.993458E-02   2.035426E+01
 2.79986E-03       1   2.046734E+01  -2.535894E-06   5.361554E-05  -2.046734E+01
 2.79986E-03       3   2.396747E+01   7.166195E-04   3.675690E-02   2.396747E+01
 2.89993E-03       1   2.362726E+01  -7.094874E-07   9.985795E-05  -2.362726E+01
 2.89993E-03       3   2.640962E+01  -2.462613E-03   1.141787E-03   2.640962E+01
 3.00000E-03       1   2.666948E+01   7.697790E-06   1.184310E-04  -2.666948E+01
 3.00000E-03       3   3.022993E+01  -2.393434E-02  -1.807924E-02   3.022993E+01
 3.09972E-03       1   2.965980E+01   4.184676E-07   1.076881E-04  -2.965980E+01
 3.09972E-03       3   3.350289E+01  -1.974404E-02  -1.238904E-01   3.350289E+01
 3.19979E-03       1   3.284180E+01   5.620899E-06   1.289479E-04  -3.284180E+01
 3.19979E-03       3   3.663843E+01   1.870775E-02  -6.537926E-04   3.663843E+01
 3.29986E-03       1   3.619206E+01   9.587592E-06   1.523094E-04  -3.619206E+01
 3.29986E-03       3   3.928167E+01   1.713481E-02   2.050896E-01   3.928167E+01
 3.39993E-03       1   3.955684E+01   1.645493E-07   1.736878E-04  -3.955684E+01
 3.39993E-03       3   4.174211E+01   1.650570E-02   6.278884E-02   4.174211E+01
 3.50000E-03       1   4.283664E+01  -7.288432E-06   2.107615E-04  -4.283664E+01
 3.50000E-03       3   4.479132E+01   1.757051E-02   5.107783E-02   4.479132E+01
 3.59971E-03       1   4.612676E+01   2.113707E-05   2.422711E-04  -4.612676E+01
 3.59971E-03       3   4.831701E+01   9.354654E-03  -4.721532E-02   4.831701E+01
 3.69979E-03       1   4.947014E+01  -1.194364E-06   2.850925E-04  -4.947014E+01
 3.69979E-03       3   5.199263E+01  -1.763745E-03  -7.972294E-02   5.199263E+01
 3.79986E-03       1   5.293898E+01   2.179667E-05   3.174318E-04  -5.293898E+01
 3.79986E-03       3   5.556745E+01  -1.652102E-02  -1.473355E-01   5.556745E+01
 3.89993E-03       1   5.654393E+01   4.056683E-05   3.521021E-04  -5.654393E+01
 3.89993E-03       3   5.901937E+01  -1.115133E-02  -1.109719E-01   5.901937E+01
 4.00000E-03       1   6.019161E+01   4.109735E-05   3.826973E-04  -6.019161E+01
 4.00000E-03       3   6.271177E+01  -6.466920E-03  -6.688040E-02   6.271177E+01
 4.09971E-03       1   6.385587E+01   5.300311E-05   4.175795E-04  -6.385587E+01
 4.09971E-03       3   6.663007E+01  -7.800629E-03  -1.147448E-02   6.663007E+01
 4.19979E-03       1   6.753130E+01   4.054712E-05   4.544627E-04  -6.753130E+01
 4.19979E-03       3   7.065281E+01  -7.886307E-03   1.353227E-02   7.065281E+01
 4.29986E-03       1   7.125383E+01   4.855374E-05   4.871127E-04  -7.125383E+01
 4.29986E-03       3   7.464072E+01  -9.612102E-04   2.307937E-02   7.464072E+01
 4.39993E-03       1   7.503737E+01   3.970408E-05   5.194099E-04  -7.503737E+01
 4.39993E-03       3   7.833252E+01   9.700002E-03   1.579937E-02   7.833252E+01
 4.50000E-03       1   7.883034E+01   5.815531E-05   5.253884E-04  -7.883034E+01
 4.50000E-03       3   8.168798E+01   3.342940E-03   2.988169E-02   8.168798E+01
 4.59971E-03       1   8.255631E+01   4.849375E-05   5.582385E-04  -8.255631E+01
 4.59971E-03       3   8.484133E+01   1.515340E-02   6.763967E-02   8.484133E+01
 4.69978E-03       1   8.632538E+01   5.810573E-05   5.897311E-04  -8.632538E+01
 4.69978E-03       3   8.790890E+01   3.310908E-03   5.110282E-02   8.790890E+01
 4.79986E-03       1   9.011787E+01   5.966479E-05   5.967345E-04  -9.011787E+01
 4.79986E-03       3   9.089778E+01  -3.301044E-03  -8.466638E-02   9.089778E+01
 4.89993E-03       1   9.402208E+01   8.489607E-05   5.473903E-04  -9.402208E+01
 4.89993E-03       3   9.394388E+01  -5.523166E-04  -5.090891E-01   9.394388E+01
 5.00000E-03       1   9.795403E+01   7.332706E-05   4.170267E-04  -9.795403E+01
 5.00000E-03       3   9.738949E+01  -1.733101E-02  -5.260171E-03   9.738949E+01
 5.09971E-03       1   1.019537E+02   7.994478E-05   4.234712E-04  -1.019537E+02
 5.09971E-03       3   1.010836E+02  -3.769654E-03   5.983151E-02   1.010836E+02
 5.19979E-03       1   1.059114E+02   8.821972E-05   3.265691E-04  -1.059114E+02
 5.19979E-03       3   1.052874E+02  -1.489776E-02  -9.798133E-02   1.052874E+02
 5.29986E-03       1   1.099245E+02   7.285518E-05   2.823716E-04  -1.099245E+02
 5.29986E-03       3   1.096922E+02   2.651427E-02  -1.531710E-02   1.096922E+02
 5.39993E-03       1   1.138823E+02   8.552882E-05   2.832413E-04  -1.138823E+02
 5.39993E-03       3   1.140948E+02   2.458748E-02   4.544863E-01   1.140948E+02
 5.50000E-03       1   1.176372E+02   6.858655E-05   1.977209E-04  -1.176372E+02
 5.50000E-03       3   1.184640E+02   5.371962E-03   2.704579E-01   1.184640E+02
 5.59972E-03       1   1.214222E+02   3.479545E-05   3.315302E-04  -1.214222E+02
 5.59972E-03       3   1.222946E+02  -8.194212E-03   9.245209E-02   1.222946E+02
 5.69979E-03       1   1.251788E+02   5.890078E-05   3.683477E-04  -1.251788E+02
 5.69979E-03       3   1.255030E+02  -3.304534E-02  -2.359510E-01   1.255030E+02
 5.79986E-03       1   1.288308E+02  -3.405404E-05   2.126553E-04  -1.288308E+02
 5.79986E-03       3   1.282291E+02  -2.806972E-02  -6.223332E-02   1.282291E+02
 5.89993E-03       1   1.325297E+02  -5.877665E-05   1.804011E-04  -1.325297E+02
 5.89993E-03       3   1.308712E+02  -3.021454E-02  -1.634496E-01   1.308712E+02
 5.99965E-03       1   1.362241E+02  -6.494877E-05   1.395466E-04  -1.362241E+02
 5.99965E-03       3   1.333134E+02  -6.020478E-03   2.268658E-02   1.333134E+02
 6.09972E-03       1   1.399520E+02  -1.046959E-04   1.769512E-04  -1.399520E+02
 6.09972E-03       3   1.362432E+02  -3.615532E-02  -3.526790E-02   1.362432E+02
 6.19979E-03       1   1.437136E+02  -1.467096E-04   1.198814E-04  -1.437136E+02
 6.19979E-03       3   1.396057E+02  -3.310229E-03  -1.753196E-01   1.396057E+02
 6.29986E-03       1   1.476609E+02  -1.372184E-04  -1.573831E-05  -1.476609E+02
 6.29986E-03       3   1.432276E+02  -2.922937E-02  -2.224509E-01   1.432276E+02
 6.39993E-03       1   1.516340E+02  -1.858595E-04  -1.400382E-04  -1.516340E+02
 6.39993E-03       3   1.470259E+02   1.304558E-01  -3.470919E-02   1.470259E+02
 6.49965E-03       1   1.555528E+02  -1.865470E-04  -3.059467E-04  -1.555528E+02
 6.49965E-03       3   1.509862E+02   6.856030E-02  -2.658504E-02   1.509862E+02
 6.59972E-03       1   1.594796E+02  -1.045270E-04  -4.369339E-04  -1.594796E+02
 6.59972E-03       3   1.549608E+02  -1.350525E-02   1.643264E-01   1.549608E+02
 6.69979E-03       1   1.633975E+02  -1.174416E-04  -5.103443E-04  -1.633975E+02
 6.69979E-03       3   1.590469E+02  -1.055845E-01   4.401293E-01   1.590469E+02
 6.79986E-03       1   1.672515E+02  -8.849949E-05  -5.121004E-04  -1.672515E+02
 6.79986E-03       3   1.634887E+02   2.442087E-02   5.732712E-01   1.634887E+02
 6.89993E-03       1   1.711197E+02  -8.395613E-05  -3.564917E-04  -1.711197E+02
 6.89993E-03       3   1.679606E+02  -2.046068E-02   4.414366E-01   1.679606E+02
 6.99965E-03       1   1.749965E+02  -5.678647E-05  -1.478805E-04  -1.749965E+02
 6.99965E-03       3   1.725863E+02   1.378952E-03   3.013321E-01   1.725863E+02
 7.09972E-03       1   1.789785E+02  -8.439622E-05   9.326001E-05  -1.789785E+02
 7.09972E-03       3   1.770083E+02   3.108200E-02   1.829550E-01   1.770083E+02
 7.19979E-03       1   1.830440E+02   3.814201E-06   3.503925E-04  -1.830440E+02
 7.19979E-03       3   1.812003E+02   5.606512E-02  -1.219838E-01   1.812003E+02
 7.29986E-03       1   1.872171E+02   3.561378E-05   6.311312E-04  -1.872171E+02
 7.29986E-03       3   1.852763E+02   1.487884E-01  -3.305470E-01   1.852763E+02
 7.39993E-03       1   1.915194E+02   2.603854E-04   8.776691E-04  -1.915194E+02
 7.39993E-03       3   1.894036E+02   7.878204E-03  -2.535335E-01   1.894036E+02
 7.49965E-03       1   1.958311E+02   2.426594E-04   1.055333E-03  -1.958311E+02
 7.49965E-03       3   1.940792E+02  -8.570302E-03  -1.038388E-01   1.940792E+02
 7.59972E-03       1   2.002448E+02   2.192327E-04   1.240563E-03  -2.002448E+02
 7.59972E-03       3   1.989950E+02  -1.705651E-02  -5.476762E-02   1.989950E+02
 7.69979E-03       1   2.046789E+02   3.388811E-04   1.382017E-03  -2.046789E+02
 7.69979E-03       3   2.039477E+02  -1.485335E-01  -2.347400E-02   2.039477E+02
 7.79986E-03       1   2.091058E+02   4.128214E-04   1.450846E-03  -2.091058E+02
 7.79986E-03       3   2.091832E+02  -1.095961E-01  -1.887523E-01   2.091832E+02
 7.89994E-03       1   2.136159E+02   4.297831E-04   1.554047E-03  -2.136159E+02
 7.89994E-03       3   2.141673E+02  -3.395748E-05  -1.414246E-01   2.141673E+02
 7.99965E-03       1   2.181948E+02   4.042290E-04   1.662609E-03  -2.181948E+02
 7.99965E-03       3   2.192135E+02   7.359737E-02   5.420438E-03   2.192135E+02
 8.09972E-03       1   2.227730E+02   4.719536E-04   1.777436E-03  -2.227730E+02
 8.09972E-03       3   2.244186E+02   2.322760E-02  -1.290260E-02   2.244186E+02
 8.19979E-03       1   2.273319E+02   4.902646E-04   1.898759E-03  -2.273319E+02
 8.19979E-03       3   2.294784E+02   1.177089E-02   1.368428E-01   2.294784E+02
 8.29987E-03       1   2.319141E+02   5.425665E-04   2.026521E-03  -2.319141E+02
 8.29987E-03       3   2.346587E+02   3.740598E-03   1.585753E-01   2.346587E+02
 8.39994E-03       1   2.364715E+02   5.803511E-04   2.193502E-03  -2.364715E+02
 8.39994E-03       3   2.397863E+02  -8.087689E-02   1.507176E-01   2.397863E+02
 8.49965E-03       1   2.410190E+02   6.958388E-04   2.368104E-03  -2.410190E+02
 8.49965E-03       3   2.446735E+02   2.307624E-02  -6.663308E-02   2.446735E+02
 8.59972E-03       1   2.456336E+02   5.726915E-04   2.554936E-03  -2.456336E+02
 8.59972E-03       3   2.494758E+02  -6.616550E-02  -1.263389E-01   2.494758E+02
 8.69980E-03       1   2.502598E+02   6.179031E-04   2.730703E-03  -2.502598E+02
 8.69980E-03       3   2.541337E+02  -5.997052E-03  -1.664783E-01   2.541337E+02
 8.79987E-03       1   2.549275E+02   6.149428E-04   2.871174E-03  -2.549275E+02
 8.79987E-03       3   2.584853E+02   7.427215E-02  -1.733320E-01   2.584853E+02
 8.89994E-03       1   2.596312E+02   6.579026E-04   2.950849E-03  -2.596312E+02
 8.89994E-03       3   2.628400E+02   1.228356E-01  -1.653357E-01   2.628400E+02
 8.99965E-03       1   2.643597E+02   7.198412E-04   2.964399E-03  -2.643597E+02
 8.99965E-03       3   2.671511E+02   8.767294E-03  -6.759955E-02   2.671511E+02
 9.09973E-03       1   2.691191E+02   8.326728E-04   3.035050E-03  -2.691191E+02
 9.09973E-03       3   2.716170E+02  -8.108434E-02   3.976044E-02   2.716170E+02
 9.19980E-03       1   2.738243E+02   9.372919E-04   3.083775E-03  -2.738243E+02
 9.19980E-03       3   2.762566E+02   8.721477E-02   9.742460E-02   2.762566E+02
 9.29987E-03       1   2.785457E+02   8.943620E-04   3.200955E-03  -2.785457E+02
 9.29987E-03       3   2.808580E+02   4.937604E-02   1.689426E-01   2.808580E+02
 9.39994E-03       1   2.832537E+02   1.031249E-03   3.361522E-03  -2.832537E+02
 9.39994E-03       3   2.856621E+02  -6.898164E-02   1.405943E-01   2.856621E+02
 9.49966E-03       1   2.879549E+02   1.248171E-03   3.555474E-03  -2.879549E+02
 9.49966E-03       3   2.905567E+02  -7.213975E-02   1.111593E-01   2.905567E+02
 9.59973E-03       1   2.926602E+02   1.388697E-03   3.804760E-03  -2.926602E+02
 9.59973E-03       3   2.950354E+02   1.333076E-01   4.578712E-02   2.950354E+02
 9.69980E-03       1   2.973956E+02   1.696229E-03   4.048325E-03  -2.973956E+02
 9.69980E-03       3   2.994791E+02   1.023069E-01  -6.939251E-02   2.994791E+02
 9.79987E-03       1   3.021557E+02   1.824516E-03   4.203381E-03  -3.021557E+02
 9.79987E-03       3   3.036594E+02   1.315371E-02  -7.227730E-02   3.036594E+02
 9.89994E-03       1   3.068899E+02   2.410303E-03   4.538267E-03  -3.068899E+02
 9.89994E-03       3   3.077880E+02  -5.618383E-02  -7.992609E-02   3.077880E+02
 9.99966E-03       1   3.110855E+02   2.608755E-03   3.242233E-02  -3.110855E+02
 9.99966E-03       3   3.119156E+02  -1.692736E-01   7.952774E-03   3.119156E+02
 1.00997E-02       1   3.157795E+02   2.630267E-03   4.490547E-02  -3.157795E+02
 1.00997E-02       3   3.162896E+02  -1.661336E-02   7.375707E-02   3.162896E+02
 1.01998E-02       1   3.204376E+02   2.697303E-03   5.835573E-02  -3.204376E+02
 1.01998E-02       3   3.211473E+02   1.334050E-01   2.845383E-02   3.211473E+02
 1.02999E-02       1   3.250523E+02   2.985170E-03   6.878314E-02  -3.250523E+02
 1.02999E-02       3   3.257602E+02   6.954700E-02   1.279623E-03   3.257602E+02
 1.03999E-02       1   3.296245E+02   3.345135E-03   7.771513E-02  -3.296245E+02
 1.03999E-02       3   3.304536E+02   4.303139E-02  -1.789613E-01   3.304536E+02
 1.04997E-02       1   3.342599E+02   3.828295E-03   8.533014E-02  -3.342599E+02
 1.04997E-02       3   3.351745E+02   3.915855E-02  -2.206829E-01   3.351745E+02
 1.05997E-02       1   3.389496E+02   4.032211E-03   9.151118E-02  -3.389496E+02
 1.05997E-02       3   3.398612E+02  -6.129157E-02  -2.986017E-01   3.398612E+02
 1.06998E-02       1   3.436362E+02   4.300086E-03   9.686000E-02  -3.436362E+02
 1.06998E-02       3   3.444487E+02  -3.139743E-02  -1.493890E-01   3.444487E+02
 1.07999E-02       1   3.483496E+02   4.191191E-03   1.015895E-01  -3.483496E+02
 1.07999E-02       3   3.488573E+02  -1.420042E-01  -2.031192E-01   3.488573E+02
 1.08999E-02       1   3.531108E+02   4.115895E-03   1.057621E-01  -3.531108E+02
 1.08999E-02       3   3.531356E+02  -1.199510E-01  -1.701791E-01   3.531356E+02
 1.09997E-02       1   3.579207E+02   4.251294E-03   1.099444E-01  -3.579207E+02
 1.09997E-02       3   3.571300E+02  -1.985514E-02  -1.589968E-01   3.571300E+02
 1.10997E-02       1   3.627469E+02   4.294484E-03   1.143002E-01  -3.627469E+02
 1.10997E-02       3   3.610535E+02   9.773099E-02  -1.480126E-01   3.610535E+02
 1.11998E-02       1   3.675983E+02   4.393818E-03   1.190110E-01  -3.675983E+02
 1.11998E-02       3   3.651488E+02  -5.328267E-02  -1.729974E-01   3.651488E+02
 1.12999E-02       1   3.723899E+02   5.831466E-03   1.113166E-01  -3.723899E+02
 1.12999E-02       3   3.698252E+02  -3.211413E-02  -2.230748E-01   3.698252E+02
 1.13999E-02       1   3.768816E+02   5.920138E-03   8.276243E-02  -3.768816E+02
 1.13999E-02       3   3.748685E+02  -9.793011E-02   8.227654E-02   3.748685E+02
 1.14997E-02       1   3.817647E+02   6.712001E-03   7.412181E-02  -3.817647E+02
 1.14997E-02       3   3.801618E+02  -5.786061E-02   1.755222E-01   3.801618E+02
 1.15997E-02       1   3.866024E+02   6.058724E-03   6.533943E-02  -3.866024E+02
 1.15997E-02       3   3.858719E+02   3.589265E-02   2.549201E-01   3.858719E+02
 1.16998E-02       1   3.913909E+02   6.068723E-03   5.636934E-02  -3.913909E+02
 1.16998E-02       3   3.913314E+02   6.473935E-02   2.648818E-01   3.913314E+02
 1.17999E-02       1   3.962511E+02   6.725066E-03   4.770929E-02  -3.962511E+02
 1.17999E-02       3   3.968199E+02   2.037926E-01   7.370366E-02   3.968199E+02
 1.18999E-02       1   4.012172E+02   6.354735E-03   3.764151E-02  -4.012172E+02
 1.18999E-02       3   4.019917E+02   9.149573E-02   1.259106E-01   4.019917E+02
 1.19997E-02       1   4.116852E+02   1.242345E-03  -1.563266E-01  -4.116852E+02
 1.19997E-02       3   4.069512E+02  -8.450248E-02  -1.360436E-01   4.069512E+02
 1.20997E-02       1   4.224284E+02   2.606384E-03  -1.180092E-01  -4.224284E+02
 1.20997E-02       3   4.128488E+02  -9.735508E-02  -1.938988E-01   4.128488E+02
 1.21998E-02       1   4.330033E+02   7.612875E-03  -7.656802E-02  -4.330033E+02
 1.21998E-02       3   4.236545E+02  -5.172370E-02  -2.416948E-01   4.238216E+02
 1.22999E-02       1   4.393666E+02   7.489312E-03  -6.137680E-02  -4.393666E+02
 1.22999E-02       3   4.366164E+02   1.296721E-01  -1.384799E-01   4.366164E+02
 1.24000E-02       1   4.479189E+02   7.818806E-03  -5.814485E-02  -4.479189E+02
 1.24000E-02       3   4.461710E+02   1.297050E-01  -5.788245E-02   4.461710E+02
 1.24997E-02       1   4.562136E+02   1.008605E-02  -8.971540E-02  -4.562136E+02
 1.24997E-02       3   4.547721E+02   4.801762E-02  -3.419160E-01   4.547721E+02
 1.25997E-02       1   4.645372E+02   9.871078E-03  -8.755117E-02  -4.645372E+02
 1.25997E-02       3   4.637460E+02   3.126882E-02   1.683645E-01   4.637460E+02
 1.26998E-02       1   4.729486E+02   9.486473E-03  -8.525153E-02  -4.729486E+02
 1.26998E-02       3   4.717245E+02  -3.410657E-01   2.696628E-01   4.717245E+02
 1.27999E-02       1   4.815326E+02   1.235729E-02  -8.826041E-02  -4.815326E+02
 1.27999E-02       3   4.792187E+02  -1.506684E-01   6.040076E-01   4.792187E+02
 1.29000E-02       1   4.902417E+02   1.419639E-02  -8.837217E-02  -4.902417E+02
 1.29000E-02       3   4.863789E+02   5.158560E-02   6.594408E-01   4.863789E+02
 1.29997E-02       1   4.986935E+02   1.122733E-02  -9.571947E-02  -4.986935E+02
 1.29997E-02       3   4.942544E+02   5.082547E-02   2.794939E-01   4.942544E+02
 1.30997E-02       1   5.073328E+02   1.181693E-02  -9.370799E-02  -5.073328E+02
 1.30997E-02       3   5.033467E+02  -1.035316E-01  -1.720709E-01   5.033467E+02
 1.31998E-02       1   5.157917E+02   1.195037E-02  -1.001599E-01  -5.157917E+02
 1.31998E-02       3   5.132958E+02  -1.819926E-01  -1.518376E-01   5.132958E+02
 1.32999E-02       1   5.242284E+02   1.237538E-02  -1.018240E-01  -5.242284E+02
 1.32999E-02       3   5.234635E+02  -1.396610E-01   1.076556E-01   5.234635E+02
 1.34000E-02       1   5.329024E+02   1.205279E-02  -1.057242E-01  -5.329024E+02
 1.34000E-02       3   5.336831E+02  -6.763221E-02   1.238999E-01   5.336831E+02
 1.34997E-02       1   5.416622E+02   1.120705E-02  -1.028717E-01  -5.416622E+02
 1.34997E-02       3   5.432926E+02   2.223469E-01   9.491551E-02   5.432926E+02
 1.35997E-02       1   5.506460E+02   1.195208E-02  -1.015702E-01  -5.506460E+02
 1.35997E-02       3   5.525782E+02   1.100536E-01  -1.038083E-01   5.525782E+02
 1.36998E-02       1   5.596957E+02   1.176952E-02  -1.019415E-01  -5.596957E+02
 1.36998E-02       3   5.617280E+02  -7.950266E-02   3.966970E-03   5.617280E+02
 1.37999E-02       1   5.681328E+02   1.188067E-02  -1.017870E-01  -5.681328E+02
 1.37999E-02       3   5.711167E+02  -1.047196E-01   2.766081E-01   5.711167E+02
 1.39000E-02       1   5.766721E+02   1.204833E-02  -9.972157E-02  -5.766721E+02
 1.39000E-02       3   5.796286E+02   3.161670E-02   2.323384E-01   5.796286E+02
 1.39997E-02       1   5.853488E+02   9.129598E-03  -8.957337E-02  -5.853488E+02
 1.39997E-02       3   5.878718E+02   5.858645E-01   8.797331E-02   5.878718E+02
 1.40997E-02       1   5.942019E+02   1.058603E-02  -8.829282E-02  -5.942019E+02
 1.40997E-02       3   5.965302E+02  -7.534190E-02   7.723234E-02   5.965302E+02
 1.41998E-02       1   6.030545E+02   1.313754E-02  -8.983802E-02  -6.030545E+02
 1.41998E-02       3   6.051975E+02   6.445904E-02   1.259801E-01   6.051975E+02
 1.42999E-02       1   6.118630E+02   1.307158E-02  -9.200347E-02  -6.118630E+02
 1.42999E-02       3   6.142689E+02   7.145294E-02   1.148783E-01   6.142689E+02
 1.44000E-02       1   6.207296E+02   1.292268E-02  -9.383939E-02  -6.207296E+02
 1.44000E-02       3   6.238122E+02  -1.702592E-01   7.589709E-02   6.238122E+02
 1.44997E-02       1   6.294375E+02   1.244039E-02  -9.593119E-02  -6.294375E+02
 1.44997E-02       3   6.331305E+02  -1.646430E-01  -1.145419E-02   6.331305E+02
 1.45997E-02       1   6.382271E+02   1.141069E-02  -8.935562E-02  -6.382271E+02
 1.45997E-02       3   6.422320E+02  -3.671521E-02  -8.089346E-02   6.422320E+02
 1.46998E-02       1   6.472092E+02   1.278442E-02  -7.737130E-02  -6.472092E+02
 1.46998E-02       3   6.510505E+02   2.018942E-02   7.384882E-04   6.510505E+02
 1.47999E-02       1   6.562373E+02   1.268393E-02  -6.677071E-02  -6.562373E+02
 1.47999E-02       3   6.595210E+02   1.754923E-01   5.733041E-02   6.595210E+02
 1.49000E-02       1   6.653236E+02   1.208661E-02  -6.296000E-02  -6.653236E+02
 1.49000E-02       3   6.678365E+02   1.049144E-01   1.197841E-01   6.678365E+02
 1.49997E-02       1   6.743375E+02   1.251209E-02  -6.704513E-02  -6.743375E+02
 1.49997E-02       3   6.766746E+02  -4.504581E-02   1.523894E-01   6.766746E+02
 1.50998E-02       1   6.833977E+02   1.366409E-02  -6.996746E-02  -6.833977E+02
 1.50998E-02       3   6.859661E+02  -2.709772E-01   1.129917E-01   6.859661E+02
 1.51998E-02       1   6.927392E+02   1.493070E-02  -6.924288E-02  -6.927392E+02
 1.51998E-02       3   6.952325E+02  -1.980332E-01   2.989992E-02   6.952325E+02
 1.52999E-02       1   7.020570E+02   1.271942E-02  -6.825515E-02  -7.020570E+02
 1.52999E-02       3   7.044571E+02  -1.284688E-01   3.745179E-02   7.044571E+02
 1.54000E-02       1   7.115673E+02   1.408386E-02  -7.027940E-02  -7.115673E+02
 1.54000E-02       3   7.133776E+02  -1.515224E-01   1.010711E-01   7.133776E+02
 1.54997E-02       1   7.209565E+02   1.332418E-02  -7.977247E-02  -7.209565E+02
 1.54997E-02       3   7.221412E+02   1.795927E-01  -6.897325E-02   7.221412E+02
 1.55998E-02       1   7.303409E+02   1.446235E-02  -7.803131E-02  -7.303409E+02
 1.55998E-02       3   7.309997E+02  -2.495548E-01   4.728705E-02   7.309997E+02
 1.56998E-02       1   7.398181E+02   1.282104E-02  -7.247212E-02  -7.398181E+02
 1.56998E-02       3   7.399307E+02  -3.171076E-02   5.075232E-02   7.399307E+02
 1.57999E-02       1   7.495393E+02   1.420423E-02  -7.514197E-02  -7.495393E+02
 1.57999E-02       3   7.489789E+02   7.882226E-02  -8.204813E-02   7.489789E+02
 1.59000E-02       1   7.591654E+02   1.451765E-02  -6.179131E-02  -7.591654E+02
 1.59000E-02       3   7.584051E+02   2.648086E-03   2.328375E-02   7.584051E+02
 1.59997E-02       1   7.674619E+02   1.384974E-02  -6.445170E-02  -7.674619E+02
 1.59997E-02       3   7.676973E+02   5.762141E-02   1.300441E-01   7.676973E+02
 1.60998E-02       1   7.767244E+02   1.291509E-02  -6.937115E-02  -7.767244E+02
 1.60998E-02       3   7.774066E+02   1.268592E-01   1.898794E-01   7.774066E+02
 1.61998E-02       1   7.864566E+02   1.211722E-02  -6.804029E-02  -7.864566E+02
 1.61998E-02       3   7.857841E+02  -1.804114E-02  -3.690857E-01   7.857841E+02
 1.62999E-02       1   7.961936E+02   9.487736E-03  -7.155526E-02  -7.961936E+02
 1.62999E-02       3   7.948637E+02   1.276862E-01   2.152456E-01   7.948637E+02
 1.64000E-02       1   8.058079E+02   1.033301E-02  -6.795215E-02  -8.058079E+02
 1.64000E-02       3   8.046294E+02   3.094327E-02   1.989180E-01   8.046294E+02
 1.64997E-02       1   8.153588E+02   9.667351E-03  -7.282507E-02  -8.153588E+02
 1.64997E-02       3   8.147022E+02   7.430070E-02   2.298073E-01   8.147022E+02
 1.65998E-02       1   8.249610E+02   9.709881E-03  -7.008595E-02  -8.249610E+02
 1.65998E-02       3   8.248609E+02  -8.770438E-02   8.567183E-02   8.248609E+02
 1.66998E-02       1   8.346137E+02   1.029294E-02  -6.998750E-02  -8.346137E+02
 1.66998E-02       3   8.346480E+02  -5.422596E-02   6.105839E-02   8.346480E+02
 1.67999E-02       1   8.444327E+02   9.448328E-03  -6.925636E-02  -8.444327E+02
 1.67999E-02       3   8.439843E+02   3.999224E-02  -2.861187E-02   8.439843E+02
 1.69000E-02       1   8.544276E+02   9.858075E-03  -7.182659E-02  -8.544276E+02
 1.69000E-02       3   8.527189E+02  -3.403737E-02   7.337987E-02   8.527189E+02
 1.69997E-02       1   8.643926E+02   1.031102E-02  -7.204700E-02  -8.643926E+02
 1.69997E-02       3   8.620828E+02  -8.133799E-02   1.407243E-01   8.620828E+02
 1.70998E-02       1   8.743954E+02   9.986211E-03  -7.186609E-02  -8.743954E+02
 1.70998E-02       3   8.721098E+02  -2.066584E-02   2.611434E-02   8.721098E+02
 1.71998E-02       1   8.844330E+02   9.956516E-03  -6.868689E-02  -8.844330E+02
 1.71998E-02       3   8.824360E+02  -2.567924E-02  -1.457678E-03   8.824360E+02
 1.72999E-02       1   8.944893E+02   1.144298E-02  -5.639810E-02  -8.944893E+02
 1.72999E-02       3   8.929180E+02  -9.038295E-02  -9.191121E-02   8.929180E+02
 1.74000E-02       1   9.045791E+02   9.690245E-03  -5.782888E-02  -9.045791E+02
 1.74000E-02       3   9.033739E+02  -8.666910E-02  -3.736623E-04   9.033739E+02
 1.74997E-02       1   9.147475E+02   9.167998E-03  -6.037322E-02  -9.147475E+02
 1.74997E-02       3   9.137676E+02   7.348132E-02   1.476951E-01   9.137676E+02
 1.75998E-02       1   9.249839E+02   1.054433E-02  -6.103952E-02  -9.249839E+02
 1.75998E-02       3   9.242525E+02  -6.313289E-02   1.833858E-01   9.242525E+02
 1.76998E-02       1   9.351532E+02   7.748537E-03  -5.360643E-02  -9.351532E+02
 1.76998E-02       3   9.349244E+02  -1.235074E-02   1.217380E-01   9.349244E+02
 1.77999E-02       1   9.455522E+02   9.599240E-03  -6.637612E-02  -9.455522E+02
 1.77999E-02       3   9.454262E+02   1.109863E-01  -1.451291E-01   9.454262E+02
 1.79000E-02       1   9.560333E+02   8.577193E-03  -6.672720E-02  -9.560333E+02
 1.79000E-02       3   9.559857E+02  -4.204425E-02  -2.246784E-01   9.559857E+02
 1.79997E-02       1   9.664601E+02   9.993315E-03  -7.331758E-02  -9.664601E+02
 1.79997E-02       3   9.664362E+02   6.156992E-02  -5.931309E-03   9.664362E+02
 1.80998E-02       1   9.769609E+02   9.711155E-03  -8.259666E-02  -9.769609E+02
 1.80998E-02       3   9.770153E+02   7.882256E-03   1.686645E-01   9.770153E+02
 1.81998E-02       1   9.874824E+02   9.483403E-03  -7.935686E-02  -9.874824E+02
 1.81998E-02       3   9.878751E+02   1.167196E-01   1.903140E-01   9.878751E+02
 1.82999E-02       1   9.980895E+02   8.723598E-03  -7.757742E-02  -9.980895E+02
 1.82999E-02       3   9.987270E+02   8.639572E-02  -1.114213E-02   9.987270E+02
 1.84000E-02       1   1.008775E+03   9.505244E-03  -7.779187E-02  -1.008775E+03
 1.84000E-02       3   1.009561E+03   6.979738E-02  -9.193309E-02   1.009561E+03
 1.84997E-02       1   1.019383E+03   9.336906E-03  -7.589996E-02  -1.019383E+03
 1.84997E-02       3   1.020400E+03  -2.723737E-02  -4.396203E-02   1.020400E+03
 1.85998E-02       1   1.029996E+03   1.117333E-02  -8.472820E-02  -1.029996E+03
 1.85998E-02       3   1.031255E+03  -9.553659E-04   1.318164E-01   1.031255E+03
 1.86998E-02       1   1.040796E+03   9.646019E-03  -7.911098E-02  -1.040796E+03
 1.86998E-02       3   1.042229E+03  -3.486475E-02   1.646693E-01   1.042229E+03
 1.87999E-02       1   1.051676E+03   8.730096E-03  -8.793151E-02  -1.051676E+03
 1.87999E-02       3   1.053188E+03  -1.403671E-03   1.224265E-01   1.053188E+03
 1.89000E-02       1   1.062573E+03   9.088355E-03  -8.381711E-02  -1.062573E+03
 1.89000E-02       3   1.063925E+03  -9.244473E-03  -8.767940E-02   1.063925E+03
 1.89997E-02       1   1.073360E+03   8.915782E-03  -8.918579E-02  -1.073360E+03
 1.89997E-02       3   1.074752E+03   3.480048E-03  -2.129139E-01   1.074752E+03
 1.90998E-02       1   1.084268E+03   9.396924E-03  -9.326433E-02  -1.084268E+03
 1.90998E-02       3   1.085702E+03   3.905132E-02  -1.002525E-01   1.085702E+03
 1.91999E-02       1   1.095265E+03   9.073345E-03  -9.703950E-02  -1.095265E+03
 1.91999E-02       3   1.096678E+03  -3.529699E-03   8.923803E-02   1.096678E+03
 1.92999E-02       1   1.106228E+03   9.213913E-03  -9.448987E-02  -1.106228E+03
 1.92999E-02       3   1.107780E+03  -6.680450E-02   2.212722E-01   1.107780E+03
 1.94000E-02       1   1.117208E+03   1.021250E-02  -9.562263E-02  -1.117208E+03
 1.94000E-02       3   1.118997E+03  -1.618387E-01   6.521718E-02   1.118997E+03
 1.94997E-02       1   1.128271E+03   8.687312E-03  -9.833113E-02  -1.128271E+03
 1.94997E-02       3   1.129994E+03  -2.997368E-02  -4.782998E-02   1.129994E+03
 1.95998E-02       1   1.139444E+03   9.617610E-03  -9.333740E-02  -1.139444E+03
 1.95998E-02       3   1.140971E+03   8.155243E-03  -1.476660E-01   1.140971E+03
 1.96999E-02       1   1.150583E+03   1.036405E-02  -9.841854E-02  -1.150583E+03
 1.96999E-02       3   1.152170E+03   1.380787E-02  -1.214162E-02   1.152170E+03
 1.97999E-02       1   1.161987E+03   9.702342E-03  -9.087535E-02  -1.161987E+03
 1.97999E-02       3   1.163282E+03  -4.854700E-02   7.322153E-02   1.163282E+03
 1.99000E-02       1   1.173259E+03   1.040110E-02  -1.021364E-01  -1.173259E+03
 1.99000E-02       3   1.174691E+03  -6.845119E-03   1.329375E-01   1.174691E+03
 1.99997E-02       1   1.184613E+03   8.686345E-03  -9.477394E-02  -1.184613E+03
 1.99997E-02       3   1.186024E+03  -4.594623E-03  -1.412962E-01   1.186024E+03
 2.00998E-02       1   1.196167E+03   9.511574E-03  -9.366356E-02  -1.196167E+03
 2.00998E-02       3   1.196759E+03   1.283470E-02  -2.384924E-01   1.196759E+03
 2.01999E-02       1   1.207667E+03   1.123149E-02  -9.310874E-02  -1.207667E+03
 2.01999E-02       3   1.207755E+03   8.422108E-02   1.268275E-01   1.207755E+03
 2.02999E-02       1   1.219284E+03   8.413518E-03  -9.663560E-02  -1.219284E+03
 2.02999E-02       3   1.219347E+03   1.026993E-01   9.679657E-02   1.219347E+03
 2.03996E-02       1   1.230752E+03   1.130158E-02  -1.005827E-01  -1.230752E+03
 2.03996E-02       3   1.231333E+03   1.842633E-02   5.051934E-01   1.231333E+03
 2.04997E-02       1   1.242427E+03   9.675586E-03  -8.994516E-02  -1.242427E+03
 2.04997E-02       3   1.243033E+03  -7.250127E-02   6.559268E-01   1.243033E+03
 2.05998E-02       1   1.254004E+03   1.003254E-02  -9.704032E-02  -1.254004E+03
 2.05998E-02       3   1.254874E+03  -4.487063E-02   8.264011E-02   1.254874E+03
 2.06999E-02       1   1.265652E+03   9.814170E-03  -9.247195E-02  -1.265652E+03
 2.06999E-02       3   1.266503E+03   1.779028E-02  -5.630239E-01   1.266503E+03
 2.07999E-02       1   1.277451E+03   8.216793E-03  -8.973230E-02  -1.277451E+03
 2.07999E-02       3   1.278093E+03  -7.794836E-03  -4.943542E-01   1.278093E+03
 2.08997E-02       1   1.289303E+03   9.437604E-03  -7.158289E-02  -1.289303E+03
 2.08997E-02       3   1.289458E+03   7.484861E-03  -3.663275E-02   1.289458E+03
 2.09997E-02       1   1.301229E+03   9.193515E-03  -8.293246E-02  -1.301229E+03
 2.09997E-02       3   1.300849E+03   2.710235E-02   3.272002E-01   1.300849E+03
 2.10998E-02       1   1.313220E+03   1.141673E-02  -6.827024E-02  -1.313220E+03
 2.10998E-02       3   1.312567E+03  -5.808893E-02   3.227491E-01   1.312567E+03
 2.11999E-02       1   1.324761E+03   9.172614E-03  -6.345886E-02  -1.324761E+03
 2.11999E-02       3   1.324911E+03  -8.332713E-02   8.721599E-02   1.324911E+03
 2.12999E-02       1   1.336905E+03   1.117722E-02  -6.262191E-02  -1.336905E+03
 2.12999E-02       3   1.336603E+03   6.269643E-02  -5.087893E-01   1.336603E+03
 2.13997E-02       1   1.349142E+03   9.619288E-03  -6.731186E-02  -1.349142E+03
 2.13997E-02       3   1.348091E+03   7.471233E-02  -8.338281E-02   1.348091E+03
 2.14997E-02       1   1.361094E+03   9.864837E-03  -7.344208E-02  -1.361094E+03
 2.14997E-02       3   1.360096E+03   1.236875E-01  -2.560239E-01   1.360096E+03
 2.15998E-02       1   1.373003E+03   8.194915E-03  -6.503449E-02  -1.373003E+03
 2.15998E-02       3   1.372671E+03   6.382219E-02   3.359050E-01   1.372671E+03
 2.16999E-02       1   1.385281E+03   9.056371E-03  -7.184867E-02  -1.385281E+03
 2.16999E-02       3   1.384656E+03   6.567073E-02   5.960379E-01   1.384656E+03
 2.17999E-02       1   1.397233E+03   1.325469E-02  -5.906125E-02  -1.397233E+03
 2.17999E-02       3   1.397212E+03  -3.323801E-04   2.634224E-01   1.397212E+03
 2.18997E-02       1   1.409582E+03   7.560419E-03  -6.719584E-02  -1.409582E+03
 2.18997E-02       3   1.409720E+03  -1.008043E-01  -2.371465E-02   1.409720E+03
 2.19997E-02       1   1.421704E+03   1.102864E-02  -8.015136E-02  -1.421704E+03
 2.19997E-02       3   1.422548E+03   3.635220E-02  -2.593131E-01   1.422548E+03
 2.20998E-02       1   1.434236E+03   9.886965E-03  -7.484609E-02  -1.434236E+03
 2.20998E-02       3   1.434414E+03  -1.235067E-01  -6.860295E-02   1.434414E+03
 2.21999E-02       1   1.446750E+03   1.045825E-02  -8.294910E-02  -1.446750E+03
 2.21999E-02       3   1.446670E+03  -1.221499E-01   2.101532E-01   1.446670E+03
 2.23000E-02       1   1.459118E+03   1.084787E-02  -5.970368E-02  -1.459118E+03
 2.23000E-02       3   1.459206E+03  -4.051260E-02   2.411705E-02   1.459206E+03
 2.23997E-02       1   1.471278E+03   1.036302E-02  -6.198755E-02  -1.471278E+03
 2.23997E-02       3   1.472382E+03  -5.571491E-02   5.694992E-02   1.472382E+03
 2.24997E-02       1   1.483680E+03   1.317831E-02  -4.141281E-02  -1.483680E+03
 2.24997E-02       3   1.484904E+03  -2.615527E-02  -2.010486E-01   1.484904E+03
 2.25998E-02       1   1.496523E+03   7.718687E-03  -5.871566E-02  -1.496523E+03
 2.25998E-02       3   1.497722E+03   1.765166E-03   3.065643E-02   1.497722E+03
 2.26999E-02       1   1.509348E+03   8.957174E-03  -2.892429E-02  -1.509348E+03
 2.26999E-02       3   1.510184E+03  -1.868666E-02  -4.785962E-02   1.510184E+03
 2.28000E-02       1   1.522004E+03   1.715029E-02  -2.462747E-02  -1.522004E+03
 2.28000E-02       3   1.522570E+03  -2.300255E-02   7.009365E-02   1.522570E+03
 2.28997E-02       1   1.534556E+03   1.163148E-02  -3.620650E-02  -1.534556E+03
 2.28997E-02       3   1.535782E+03  -4.479223E-02   1.288216E-01   1.535782E+03
 2.29997E-02       1   1.547771E+03   9.342312E-03  -1.267591E-02  -1.547771E+03
 2.29997E-02       3   1.548283E+03   3.769404E-04   1.684769E-01   1.548283E+03
 2.30998E-02       1   1.560207E+03   1.858462E-02  -1.837146E-02  -1.560207E+03
 2.30998E-02       3   1.561294E+03   3.547750E-02  -1.554698E-01   1.561294E+03
 2.31999E-02       1   1.573188E+03   7.131415E-03  -2.271248E-02  -1.573188E+03
 2.31999E-02       3   1.574622E+03  -1.309196E-02  -1.268767E-01   1.574622E+03
 2.33000E-02       1   1.587634E+03   4.809024E-03  -1.211749E-02  -1.587634E+03
 2.33000E-02       3   1.587772E+03   1.233706E-01  -1.586928E-01   1.587772E+03
 2.33997E-02       1   1.601634E+03   1.585590E-02  -2.103032E-02  -1.601634E+03
 2.33997E-02       3   1.601311E+03   1.605509E-02  -9.515670E-02   1.601311E+03
 2.34998E-02       1   1.616159E+03   1.092540E-02  -3.347391E-02  -1.616159E+03
 2.34998E-02       3   1.616050E+03  -1.926328E-02  -2.900954E-03   1.616050E+03
 2.35998E-02       1   1.630391E+03   5.259004E-03  -3.574932E-02  -1.630391E+03
 2.35998E-02       3   1.630922E+03   3.160535E-02   1.008560E-01   1.630922E+03
 2.36999E-02       1   1.644423E+03   8.556235E-03  -2.047034E-02  -1.644423E+03
 2.36999E-02       3   1.645982E+03  -1.062832E-01   2.485090E-02   1.645982E+03
 2.38000E-02       1   1.658332E+03   5.499216E-03  -1.639614E-02  -1.658332E+03
 2.38000E-02       3   1.661142E+03  -3.898319E-02   4.426207E-03   1.661142E+03
 2.38997E-02       1   1.672740E+03   8.627311E-04  -3.969248E-02  -1.672740E+03
 2.38997E-02       3   1.675805E+03  -2.718923E-02  -2.620274E-01   1.675805E+03
 2.39998E-02       1   1.687303E+03   5.688812E-03  -4.647482E-02  -1.687303E+03
 2.39998E-02       3   1.690070E+03   9.398233E-02  -7.640494E-02   1.690070E+03
 2.40998E-02       1   1.701877E+03   4.090886E-03  -2.034763E-02  -1.701877E+03
 2.40998E-02       3   1.703780E+03  -2.982998E-02  -1.333244E-01   1.703780E+03
 2.41999E-02       1   1.716402E+03   5.015624E-03  -3.017038E-02  -1.716402E+03
 2.41999E-02       3   1.717457E+03  -4.479942E-02   1.366969E-02   1.717457E+03
 2.43000E-02       1   1.730819E+03   4.762463E-03  -3.647028E-02  -1.730819E+03
 2.43000E-02       3   1.731444E+03  -4.797638E-02  -1.021713E-01   1.731444E+03
 2.43997E-02       1   1.745188E+03   4.141961E-03  -3.695698E-02  -1.745188E+03
 2.43997E-02       3   1.746271E+03  -3.020215E-02  -4.210062E-02   1.746271E+03
 2.44998E-02       1   1.759568E+03   3.542153E-03  -1.595789E-02  -1.759568E+03
 2.44998E-02       3   1.760557E+03  -1.828501E-01  -3.865609E-02   1.760557E+03
 2.45998E-02       1   1.774650E+03   5.626372E-03  -4.427313E-02  -1.774650E+03
 2.45998E-02       3   1.775614E+03  -1.092861E-01   8.998531E-02   1.775614E+03
 2.46999E-02       1   1.788930E+03   8.125157E-04  -1.554166E-02  -1.788930E+03
 2.46999E-02       3   1.790717E+03   1.879601E-02   1.240297E-01   1.790717E+03
 2.48000E-02       1   1.804171E+03   5.229879E-03  -4.355788E-02  -1.804171E+03
 2.48000E-02       3   1.805734E+03  -8.313944E-04   1.108317E-01   1.805734E+03
 2.48997E-02       1   1.819005E+03   3.889998E-03  -4.021399E-02  -1.819005E+03
 2.48997E-02       3   1.820277E+03  -9.961174E-02   9.611172E-02   1.820277E+03
 2.49998E-02       1   1.833841E+03   3.698538E-03  -4.675611E-02  -1.833841E+03
 2.49998E-02       3   1.834963E+03  -2.591303E-02   1.134486E-01   1.834963E+03
 2.50998E-02       1   1.848819E+03   4.486723E-03  -4.114177E-02  -1.848819E+03
 2.50998E-02       3   1.849929E+03  -4.109015E-02   4.432514E-03   1.849929E+03
 2.51999E-02       1   1.863722E+03   4.716157E-03  -2.683572E-02  -1.863722E+03
 2.51999E-02       3   1.864808E+03  -3.680159E-02  -1.207842E-01   1.864808E+03
 2.53000E-02       1   1.878534E+03  -3.153239E-03  -3.858518E-02  -1.878534E+03
 2.53000E-02       3   1.880033E+03   3.181557E-02  -1.938699E-01   1.880033E+03
 2.53997E-02       1   1.893534E+03   4.243450E-03  -5.434305E-02  -1.893534E+03
 2.53997E-02       3   1.895400E+03  -4.166628E-03  -4.337586E-02   1.895400E+03
 2.54998E-02       1   1.908841E+03   4.646644E-03  -2.114384E-02  -1.908841E+03
 2.54998E-02       3   1.910460E+03  -1.122539E-01   5.290263E-02   1.910460E+03
 2.55999E-02       1   1.924028E+03   4.564025E-03  -1.818398E-02  -1.924028E+03
 2.55999E-02       3   1.925267E+03   6.641460E-02  -1.016939E-02   1.925267E+03
 2.56999E-02       1   1.938993E+03  -6.923226E-04  -6.953318E-03  -1.938993E+03
 2.56999E-02       3   1.940287E+03  -3.013727E-02   3.407416E-02   1.940287E+03
 2.58000E-02       1   1.954333E+03   2.580751E-03  -3.903049E-02  -1.954333E+03
 2.58000E-02       3   1.955896E+03   4.838279E-02  -2.981170E-02   1.955896E+03
 2.58997E-02       1   1.969697E+03   4.253905E-03  -1.981207E-02  -1.969697E+03
 2.58997E-02       3   1.970485E+03   1.322000E-02  -7.004043E-02   1.970485E+03
 2.59998E-02       1   1.984967E+03   6.328478E-03  -2.582773E-02  -1.984967E+03
 2.59998E-02       3   1.985397E+03  -5.208582E-02  -1.025353E-03   1.985397E+03
 2.60999E-02       1   2.000321E+03   3.378581E-03  -3.026042E-02  -2.000321E+03
 2.60999E-02       3   2.000689E+03  -1.286884E-02   1.557027E-01   2.000689E+03
 2.61999E-02       1   2.015916E+03   3.990485E-03  -1.613015E-02  -2.015916E+03
 2.61999E-02       3   2.015551E+03   5.989669E-03   1.266865E-01   2.015551E+03
 2.62996E-02       1   2.031126E+03  -2.391511E-04  -4.300520E-02  -2.031126E+03
 2.62996E-02       3   2.030858E+03  -1.218315E-02   9.655627E-02   2.030858E+03
 2.63997E-02       1   2.046604E+03   1.891891E-04  -3.503423E-02  -2.046604E+03
 2.63997E-02       3   2.046566E+03  -7.321410E-02  -3.860187E-03   2.046566E+03
 2.64998E-02       1   2.062270E+03   7.509971E-03  -2.356105E-02  -2.062270E+03
 2.64998E-02       3   2.062363E+03  -5.605512E-02  -1.046651E-01   2.062363E+03
 2.65999E-02       1   2.077899E+03   2.679685E-03  -2.136886E-02  -2.077899E+03
 2.65999E-02       3   2.077900E+03   4.426455E-03  -6.878804E-02   2.077900E+03
 2.66999E-02       1   2.093493E+03   3.097988E-03  -2.341775E-02  -2.093493E+03
 2.66999E-02       3   2.093334E+03   3.358675E-02  -7.399941E-02   2.093334E+03
 2.67997E-02       1   2.109040E+03   4.743398E-03  -2.241013E-02  -2.109040E+03
 2.67997E-02       3   2.108910E+03  -9.681093E-02  -1.544424E-01   2.108910E+03
 2.68997E-02       1   2.124783E+03  -4.643167E-04  -2.157612E-02  -2.124783E+03
 2.68997E-02       3   2.124419E+03   4.435353E-02   5.328846E-02   2.124419E+03
 2.69998E-02       1   2.140524E+03   1.311628E-03   2.569435E-02  -2.140524E+03
 2.69998E-02       3   2.140416E+03   3.360310E-02   2.227185E-01   2.140416E+03
 2.70999E-02       1   2.156357E+03   5.216577E-03   6.796122E-02  -2.156357E+03
 2.70999E-02       3   2.156264E+03  -1.011219E-01   3.947194E-02   2.156264E+03
 2.71999E-02       1   2.172010E+03   2.695072E-03   5.573927E-02  -2.172010E+03
 2.71999E-02       3   2.172461E+03  -4.619206E-02   5.493082E-02   2.172461E+03
 2.72997E-02       1   2.187597E+03   5.693633E-03  -1.408886E-02  -2.187597E+03
 2.72997E-02       3   2.188543E+03  -9.337963E-02  -1.149948E-01   2.188543E+03
 2.73997E-02       1   2.203479E+03   4.542842E-03  -5.276690E-03  -2.203479E+03
 2.73997E-02       3   2.204448E+03   3.051870E-02  -2.224184E-01   2.204448E+03
 2.74998E-02       1   2.219452E+03   4.999091E-03   1.648367E-03  -2.219452E+03
 2.74998E-02       3   2.220428E+03   4.090121E-02  -2.366227E-01   2.220428E+03
 2.75999E-02       1   2.235124E+03   4.102168E-03  -2.806474E-02  -2.235124E+03
 2.75999E-02       3   2.236592E+03  -7.641572E-02   3.787077E-02   2.236592E+03
 2.77000E-02       1   2.251382E+03   4.288377E-03  -5.605165E-03  -2.251382E+03
 2.77000E-02       3   2.253480E+03   9.314443E-02  -1.058281E-03   2.253480E+03
 2.77997E-02       1   2.267407E+03   6.603124E-03  -7.221888E-03  -2.267407E+03
 2.77997E-02       3   2.270175E+03  -9.557683E-02  -6.974535E-02   2.270175E+03
 2.78997E-02       1   2.283674E+03   5.576057E-03  -6.639401E-03  -2.283674E+03
 2.78997E-02       3   2.286311E+03  -6.753501E-02  -2.315909E-01   2.286311E+03
 2.79998E-02       1   2.299910E+03   6.916014E-03  -1.704692E-02  -2.299910E+03
 2.79998E-02       3   2.302260E+03  -9.628966E-03  -8.795524E-02   2.302260E+03
 2.80999E-02       1   2.316211E+03   5.721193E-03  -1.444429E-02  -2.316211E+03
 2.80999E-02       3   2.318054E+03  -6.032086E-02   1.627682E-01   2.318054E+03
 2.82000E-02       1   2.332490E+03   7.105850E-03  -1.376471E-02  -2.332490E+03
 2.82000E-02       3   2.333877E+03  -2.663217E-02   2.314786E-01   2.333877E+03
 2.82997E-02       1   2.348861E+03   7.026720E-03   3.972907E-03  -2.348861E+03
 2.82997E-02       3   2.349732E+03   3.758749E-02   1.168790E-01   2.349732E+03
 2.83998E-02       1   2.365215E+03   7.548569E-03   1.495165E-03  -2.365215E+03
 2.83998E-02       3   2.365943E+03  -1.823980E-01  -6.311913E-02   2.365943E+03
 2.84998E-02       1   2.381575E+03   8.333106E-03  -2.082219E-02  -2.381575E+03
 2.84998E-02       3   2.382292E+03   6.795015E-02  -2.802594E-02   2.382292E+03
 2.85999E-02       1   2.397812E+03   6.002592E-03  -2.464905E-02  -2.397812E+03
 2.85999E-02       3   2.399127E+03   8.684391E-02   6.787139E-02   2.399127E+03
 2.87000E-02       1   2.414406E+03   7.012592E-03  -9.341268E-03  -2.414406E+03
 2.87000E-02       3   2.415608E+03   1.715992E-01   7.728852E-02   2.415608E+03
 2.87997E-02       1   2.431102E+03   7.492915E-03   1.086274E-02  -2.431102E+03
 2.87997E-02       3   2.431535E+03   1.500760E-01   1.890821E-01   2.431535E+03
 2.88998E-02       1   2.447857E+03   6.325139E-03  -3.805677E-03  -2.447857E+03
 2.88998E-02       3   2.447708E+03  -3.474198E-01  -2.769987E-02   2.447708E+03
 2.89998E-02       1   2.464285E+03   9.004812E-03  -4.426474E-03  -2.464285E+03
 2.89998E-02       3   2.463997E+03   2.318227E-02   4.459682E-03   2.463997E+03
 2.90999E-02       1   2.480812E+03   2.973427E-03  -1.494007E-02  -2.480812E+03
 2.90999E-02       3   2.480758E+03  -2.504013E-01   3.396828E-02   2.480758E+03
 2.92000E-02       1   2.497601E+03   3.105257E-03  -2.297646E-02  -2.497601E+03
 2.92000E-02       3   2.497745E+03   2.067270E-01  -3.225881E-02   2.497745E+03
 2.92997E-02       1   2.514258E+03   2.798683E-03  -2.128863E-02  -2.514258E+03
 2.92997E-02       3   2.514689E+03   7.548032E-02   2.887359E-02   2.514689E+03
 2.93998E-02       1   2.531351E+03   1.012630E-02   4.358070E-03  -2.531351E+03
 2.93998E-02       3   2.531355E+03   1.098890E-01   1.229914E-02   2.531355E+03
 2.94998E-02       1   2.548089E+03   2.623161E-03  -1.924409E-02  -2.548089E+03
 2.94998E-02       3   2.547903E+03   4.549008E-02  -3.479148E-01   2.547903E+03
 2.95999E-02       1   2.564636E+03   1.306543E-02  -7.759698E-03  -2.564636E+03
 2.95999E-02       3   2.564885E+03   2.319146E-01  -2.903046E-03   2.564885E+03
 2.97000E-02       1   2.582215E+03   8.685529E-03  -1.266197E-02  -2.582215E+03
 2.97000E-02       3   2.580917E+03  -4.921500E-02  -2.672261E-02   2.580917E+03
 2.97997E-02       1   2.599303E+03   5.610280E-03   2.661753E-03  -2.599303E+03
 2.97997E-02       3   2.597802E+03  -8.575410E-02   1.927456E-01   2.597802E+03
 2.98998E-02       1   2.616128E+03   5.254599E-03  -1.496192E-02  -2.616128E+03
 2.98998E-02       3   2.615186E+03   1.356107E-03   3.297745E-01   2.615186E+03
 2.99999E-02       1   2.633215E+03   8.145113E-03  -4.277222E-03  -2.633215E+03
 2.99999E-02       3   2.632112E+03   1.364461E-01  -2.854055E-01   2.632112E+03
 3.00999E-02       1   2.650529E+03   5.221132E-03   1.158905E-03  -2.650529E+03
 3.00999E-02       3   2.649602E+03  -1.207138E-01  -1.922419E-01   2.649602E+03
 3.02000E-02       1   2.667509E+03   2.488702E-04  -8.077987E-03  -2.667509E+03
 3.02000E-02       3   2.665352E+03   1.713988E-01  -4.329124E-01   2.665352E+03
 3.02997E-02       1   2.685112E+03   8.017961E-03  -1.091063E-02  -2.685112E+03
 3.02997E-02       3   2.683806E+03   1.181806E-01  -1.853609E-01   2.683806E+03
 3.03998E-02       1   2.702271E+03   1.171695E-02  -4.689259E-03  -2.702271E+03
 3.03998E-02       3   2.700820E+03  -1.894919E-01  -3.054406E-01   2.700820E+03
 3.04999E-02       1   2.719746E+03   6.557226E-03   1.098843E-02  -2.719746E+03
 3.04999E-02       3   2.718772E+03  -5.722482E-02  -2.034269E-01   2.718772E+03
 3.05999E-02       1   2.737018E+03   7.752403E-03  -4.136276E-04  -2.737018E+03
 3.05999E-02       3   2.736257E+03   1.197265E-01   1.276369E-01   2.736257E+03
 3.06997E-02       1   2.754449E+03   5.814143E-03  -1.328275E-02  -2.754449E+03
 3.06997E-02       3   2.753668E+03   6.566026E-02   1.672518E-01   2.753668E+03
 3.07997E-02       1   2.771948E+03   6.915999E-03  -1.270962E-02  -2.771948E+03
 3.07997E-02       3   2.771534E+03  -2.141015E-01  -9.626068E-02   2.771534E+03
 3.08998E-02       1   2.789607E+03   9.557279E-03  -2.333885E-03  -2.789607E+03
 3.08998E-02       3   2.787431E+03   5.350777E-01   1.090262E+00   2.787431E+03
 3.09999E-02       1   2.807097E+03   3.630122E-03  -1.641116E-02  -2.807097E+03
 3.09999E-02       3   2.807169E+03  -3.915131E-02  -1.857978E-01   2.807169E+03
 3.10999E-02       1   2.824637E+03   1.105064E-02  -1.904815E-02  -2.824637E+03
 3.10999E-02       3   2.822687E+03  -1.120916E-02   3.608395E-01   2.822687E+03
 3.11997E-02       1   2.842060E+03   5.196420E-02   6.013915E-03  -2.842060E+03
 3.11997E-02       3   2.842783E+03   3.691294E-02  -1.619663E-01   2.842783E+03
 3.12997E-02       1   2.860162E+03   2.952078E-04  -1.231147E-04  -2.860162E+03
 3.12997E-02       3   2.861009E+03   2.243030E-01  -1.990704E-01   2.861009E+03
 3.13998E-02       1   2.877880E+03   1.171456E-02   8.053005E-03  -2.877880E+03
 3.13998E-02       3   2.878409E+03  -9.500833E-02   1.673895E-01   2.878409E+03
 3.14999E-02       1   2.895919E+03   2.753791E-03  -9.985706E-03  -2.895919E+03
 3.14999E-02       3   2.896148E+03  -1.447028E-01   4.976910E-02   2.896148E+03
 3.16000E-02       1   2.913706E+03   8.815482E-03   1.674055E-02  -2.913706E+03
 3.16000E-02       3   2.913975E+03  -1.600261E-01   4.727904E-01   2.913975E+03
 3.16997E-02       1   2.931718E+03   8.138982E-03   7.894615E-03  -2.931718E+03
 3.16997E-02       3   2.931584E+03  -2.763759E-02  -8.651490E-03   2.931584E+03
 3.17997E-02       1   2.949438E+03   6.962483E-03   3.065472E-02  -2.949438E+03
 3.17997E-02       3   2.949915E+03  -1.396546E-01   7.463121E-01   2.949915E+03
 3.18998E-02       1   2.967241E+03   7.703383E-03   1.779332E-02  -2.967241E+03
 3.18998E-02       3   2.968729E+03   3.767600E-01   1.144070E-01   2.968729E+03
 3.19999E-02       1   2.985354E+03   9.794665E-03   1.618158E-02  -2.985354E+03
 3.19999E-02       3   2.986622E+03   9.474007E-02  -2.260193E-01   2.986622E+03
 3.21000E-02       1   3.002728E+03  -8.411503E-03   1.592416E-02  -3.002728E+03
 3.21000E-02       3   3.005256E+03   9.425965E-02  -3.719062E-01   3.005256E+03
 3.21997E-02       1   3.021505E+03   1.895505E-02   1.340708E-02  -3.021505E+03
 3.21997E-02       3   3.022931E+03  -1.432537E-01  -3.664152E-02   3.022931E+03
 3.22998E-02       1   3.040158E+03   5.196242E-03   4.845044E-03  -3.040158E+03
 3.22998E-02       3   3.040945E+03  -9.595488E-02  -2.559694E-01   3.040945E+03
 3.23998E-02       1   3.058126E+03   1.023038E-02  -2.038678E-03  -3.058126E+03
 3.23998E-02       3   3.058910E+03   7.508772E-02  -2.507456E-01   3.058910E+03
 3.24999E-02       1   3.076012E+03   3.522469E-02   2.446008E-02  -3.076012E+03
 3.24999E-02       3   3.077438E+03   8.761987E-02  -3.787701E-02   3.077438E+03
 3.26000E-02       1   3.094272E+03  -3.035831E-03   4.035641E-02  -3.094272E+03
 3.26000E-02       3   3.096589E+03   2.873365E-03  -3.578611E-01   3.096589E+03
 3.26997E-02       1   3.112859E+03   7.324249E-03   4.897153E-02  -3.112859E+03
 3.26997E-02       3   3.114412E+03   7.866468E-02  -3.658404E-03   3.114412E+03
 3.27998E-02       1   3.139891E+03  -9.723834E-03  -2.314949E-02  -3.139891E+03
 3.27998E-02       3   3.132498E+03   6.411476E-02   1.183358E-01   3.132498E+03
 3.28998E-02       1   3.160556E+03   3.792874E-02   2.942425E-03  -3.160556E+03
 3.28998E-02       3   3.155339E+03   1.309524E-01   5.764693E-01   3.155339E+03
 3.29999E-02       1   3.180854E+03   1.067092E-01  -1.148963E-01  -3.180854E+03
 3.29999E-02       3   3.181614E+03   8.651117E-02   5.914692E-01   3.181614E+03
 3.31000E-02       1   3.206199E+03   3.467173E-02   6.242255E-03  -3.206199E+03
 3.31000E-02       3   3.207063E+03   1.342640E-01   9.464824E-01   3.207063E+03
 3.31997E-02       1   3.226789E+03   7.422230E-02  -3.707579E-02  -3.226789E+03
 3.31997E-02       3   3.230696E+03  -4.033864E-01   1.577351E-01   3.230696E+03
 3.32998E-02       1   3.249865E+03   3.291927E-02  -5.784955E-02  -3.249865E+03
 3.32998E-02       3   3.253680E+03  -9.436863E-02  -5.180699E-04   3.253680E+03
 3.33999E-02       1   3.272782E+03   2.893045E-02   2.541448E-02  -3.272782E+03
 3.33999E-02       3   3.274755E+03  -4.383054E-03   2.390763E-01   3.274755E+03
 3.34999E-02       1   3.295038E+03   2.625768E-02  -3.017141E-02  -3.295038E+03
 3.34999E-02       3   3.295603E+03   1.714703E-01   1.427970E-01   3.295603E+03
 3.35996E-02       1   3.316455E+03   1.546537E-02   7.048468E-02  -3.316455E+03
 3.35996E-02       3   3.317728E+03   1.040521E-01   1.158019E+00   3.317728E+03
 3.36997E-02       1   3.339665E+03  -2.892865E-03  -1.719127E-02  -3.339665E+03
 3.36997E-02       3   3.338978E+03   3.411513E-01   2.653699E-01   3.338978E+03
 3.37998E-02       1   3.361710E+03   3.187161E-02   4.367035E-02  -3.361710E+03
 3.37998E-02       3   3.360282E+03  -9.987895E-03  -1.700363E-01   3.360282E+03
 3.38999E-02       1   3.384175E+03   1.379880E-02   1.366474E-02  -3.384175E+03
 3.38999E-02       3   3.382706E+03   6.999298E-02  -1.685369E-01   3.382706E+03
 3.39999E-02       1   3.406298E+03   5.362355E-02  -2.989562E-03  -3.406298E+03
 3.39999E-02       3   3.405151E+03  -1.044056E-02  -2.334450E-01   3.405151E+03
 3.40997E-02       1   3.429843E+03   1.717928E-02  -2.863119E-02  -3.429843E+03
 3.40997E-02       3   3.427581E+03  -2.567031E-01   2.168531E+00   3.427581E+03
 3.41997E-02       1   3.452044E+03   4.147001E-02   4.235993E-02  -3.452044E+03
 3.41997E-02       3   3.450723E+03   6.379805E-02  -1.829223E-03   3.450723E+03
 3.42998E-02       1   3.473089E+03   7.056185E-02  -3.782474E-02  -3.473089E+03
 3.42998E-02       3   3.473893E+03   1.877190E-02   4.945920E-01   3.473893E+03
 3.43999E-02       1   3.497146E+03   2.042827E-02   4.938321E-02  -3.497146E+03
 3.43999E-02       3   3.497956E+03  -7.165715E-01  -4.379734E-01   3.497956E+03
 3.45000E-02       1   3.520977E+03   1.541699E-02  -1.431921E-02  -3.520977E+03
 3.45000E-02       3   3.519692E+03  -1.260145E-01   9.474208E-01   3.519692E+03
 3.45997E-02       1   3.542915E+03   4.495871E-02  -1.398447E-03  -3.542915E+03
 3.45997E-02       3   3.543041E+03   2.069435E-02  -4.126538E-02   3.543041E+03
 3.46997E-02       1   3.566295E+03   9.869290E-03   1.456695E-04  -3.566295E+03
 3.46997E-02       3   3.565550E+03  -1.423513E-01  -6.925225E-01   3.565550E+03
 3.47998E-02       1   3.573493E+03  -4.469092E-01  -1.810601E+00  -3.573493E+03
 3.47998E-02       3   3.589438E+03   2.787383E-01   7.202775E-01   3.589438E+03
 3.48999E-02       1   3.612654E+03   1.753173E-02   1.021677E-02  -3.612654E+03
 3.48999E-02       3   3.613661E+03   9.879533E-02  -4.294625E-02   3.613661E+03
 3.50000E-02       1   3.636017E+03   1.899427E-02  -6.434150E-02  -3.636017E+03
 3.50000E-02       3   3.635609E+03   3.222093E-01  -1.410717E-01   3.635609E+03
 3.50997E-02       1   3.657854E+03   7.048692E-02  -2.926092E-02  -3.657854E+03
 3.50997E-02       3   3.659325E+03  -1.605011E-01   5.412008E-01   3.659325E+03
 3.51998E-02       1   3.682138E+03   2.144382E-02  -1.175138E-02  -3.682138E+03
 3.51998E-02       3   3.683425E+03   1.311651E-01  -7.902189E-02   3.683425E+03
 3.52998E-02       1   3.704520E+03  -2.283341E-02  -1.374633E-01  -3.704520E+03
 3.52998E-02       3   3.705809E+03  -2.164965E-01   1.569448E+00   3.705809E+03
 3.53999E-02       1   3.729315E+03   2.889471E-02  -4.678218E-03  -3.729315E+03
 3.53999E-02       3   3.728724E+03   9.042423E-02   4.398948E-01   3.728724E+03
 3.55000E-02       1   3.744924E+03  -7.651070E-01  -7.453903E-01  -3.744924E+03
 3.55000E-02       3   3.752275E+03   6.301951E-02  -7.469651E-01   3.752275E+03
 3.55997E-02       1   3.776075E+03   3.346937E-02  -2.783212E-03  -3.776075E+03
 3.55997E-02       3   3.776993E+03   6.924179E-02   1.683946E-01   3.776993E+03
 3.56998E-02       1   3.799892E+03   1.298894E-02  -4.132299E-03  -3.799892E+03
 3.56998E-02       3   3.800128E+03  -6.111877E-02   2.346981E-03   3.800128E+03
 3.57998E-02       1   3.822592E+03   4.661991E-02  -3.604445E-03  -3.822592E+03
 3.57998E-02       3   3.823705E+03  -1.870334E-01   5.540133E-01   3.823705E+03
 3.58999E-02       1   3.847165E+03   1.042284E-02  -4.832413E-02  -3.847165E+03
 3.58999E-02       3   3.848191E+03  -1.370918E-02   1.758970E-02   3.848191E+03
 3.60000E-02       1   3.870881E+03  -5.245456E-03  -3.238707E-02  -3.870881E+03
 3.60000E-02       3   3.870894E+03  -4.518305E-01   1.086606E+00   3.870894E+03
 3.60997E-02       1   3.894542E+03   4.781267E-02  -7.599105E-02  -3.894542E+03
 3.60997E-02       3   3.895020E+03  -2.196478E-01  -4.882692E-01   3.895020E+03
 3.61998E-02       1   3.916128E+03   9.941044E-02   9.306840E-02  -3.916128E+03
 3.61998E-02       3   3.919132E+03  -9.572868E-03  -2.430989E-01   3.919132E+03
 3.62999E-02       1   3.940713E+03   4.579888E-02   1.678182E-02  -3.940713E+03
 3.62999E-02       3   3.944615E+03  -1.710705E-01  -2.985141E-01   3.944615E+03
 3.63999E-02       1   3.964111E+03   1.658147E-02  -1.193592E-01  -3.964111E+03
 3.63999E-02       3   3.967856E+03   1.946498E-01  -2.699689E-01   3.967856E+03
 3.64997E-02       1   3.989331E+03   3.008276E-02  -2.731287E-02  -3.989331E+03
 3.64997E-02       3   3.992086E+03   1.849270E-01   2.928018E-01   3.992086E+03
 3.65997E-02       1   4.013522E+03   5.200019E-02  -4.518079E-02  -4.013522E+03
 3.65997E-02       3   4.016857E+03   2.305461E-02   1.795258E-01   4.016857E+03
 3.66998E-02       1   4.036440E+03   1.087878E-01  -3.870725E-02  -4.036440E+03
 3.66998E-02       3   4.041753E+03   1.422396E-01   6.264022E-02   4.041753E+03
 3.67999E-02       1   4.061520E+03  -1.154518E-03  -7.485297E-03  -4.061520E+03
 3.67999E-02       3   4.067286E+03   3.000615E-01  -1.671692E-01   4.067286E+03
 3.68999E-02       1   4.085485E+03   3.114806E-02   4.433766E-02  -4.085485E+03
 3.68999E-02       3   4.090320E+03   2.032766E-01   2.082693E-01   4.090320E+03
 3.69997E-02       1   4.108956E+03  -1.261122E-02   2.886161E-02  -4.108956E+03
 3.69997E-02       3   4.115228E+03   9.147302E-02   4.105143E-01   4.115228E+03
 3.70997E-02       1   4.133015E+03  -1.988530E-02  -6.611660E-02  -4.133015E+03
 3.70997E-02       3   4.138145E+03   2.313885E-01  -1.167573E-01   4.138145E+03
 3.71998E-02       1   4.158855E+03   4.370587E-02   4.781869E-02  -4.158855E+03
 3.71998E-02       3   4.162112E+03  -1.857855E-01   4.381433E-01   4.162112E+03
 3.72999E-02       1   4.183167E+03  -1.461720E-02   3.211209E-02  -4.183167E+03
 3.72999E-02       3   4.185447E+03  -2.379455E-01   6.473263E-01   4.185447E+03
 3.74000E-02       1   4.207440E+03  -2.586737E-03   3.614664E-02  -4.207440E+03
 3.74000E-02       3   4.209416E+03  -6.689557E-02   4.478970E-01   4.209416E+03
 3.74997E-02       1   4.229546E+03   1.811026E-01   3.364107E-02  -4.229546E+03
 3.74997E-02       3   4.234037E+03   1.447593E-01  -7.206506E-01   4.234037E+03
 3.75998E-02       1   4.254760E+03   1.709119E-01   1.778248E-01  -4.254760E+03
 3.75998E-02       3   4.258393E+03  -7.888178E-02  -2.038259E+00   4.258393E+03
 3.76998E-02       1   4.280435E+03   6.834550E-02   6.685828E-02  -4.280435E+03
 3.76998E-02       3   4.283157E+03   4.661186E-01  -7.518672E-01   4.283157E+03
 3.77999E-02       1   4.303208E+03   5.386000E-02  -7.155400E-02  -4.303208E+03
 3.77999E-02       3   4.308793E+03   2.794729E-01   4.996046E-01   4.308793E+03
 3.79000E-02       1   4.330587E+03   4.263291E-02  -5.447171E-02  -4.330587E+03
 3.79000E-02       3   4.331312E+03  -5.860321E-02   3.308851E-01   4.331312E+03
 3.79997E-02       1   4.346457E+03   1.318835E-01   5.893588E-01  -4.346457E+03
 3.79997E-02       3   4.356934E+03   8.724203E-02   2.339584E-01   4.356934E+03
 3.80998E-02       1   4.379429E+03   4.267645E-02   6.524317E-02  -4.379429E+03
 3.80998E-02       3   4.382283E+03   5.017420E-01   1.782691E-01   4.382283E+03
 3.81998E-02       1   4.403777E+03   6.152742E-02   8.929235E-02  -4.403777E+03
 3.81998E-02       3   4.404487E+03  -5.075894E-02   7.050212E-01   4.404487E+03
 3.82999E-02       1   4.429026E+03   7.186980E-02   1.509921E-02  -4.429026E+03
 3.82999E-02       3   4.431082E+03  -2.081835E-02   8.154715E-01   4.431082E+03
 3.84000E-02       1   4.455240E+03   1.166647E-02   6.093129E-04  -4.455240E+03
 3.84000E-02       3   4.454823E+03  -1.195107E-01   1.774329E-01   4.454823E+03
 3.84997E-02       1   4.479465E+03   7.506375E-02   2.342118E-02  -4.479465E+03
 3.84997E-02       3   4.478712E+03   4.122488E-01  -1.534277E+00   4.478712E+03
 3.85998E-02       1   4.502587E+03   1.619990E-01  -1.174397E-01  -4.502587E+03
 3.85998E-02       3   4.504785E+03  -2.145210E-01   4.570987E-01   4.504785E+03
 3.86999E-02       1   4.527152E+03   1.640480E-01   4.219149E-02  -4.527152E+03
 3.86999E-02       3   4.530053E+03   2.439003E-01  -1.278098E+00   4.530053E+03
 3.87999E-02       1   4.552383E+03   6.018328E-02   2.514923E-01  -4.552383E+03
 3.87999E-02       3   4.554514E+03   1.329272E+00  -9.542587E-02   4.554514E+03
 3.88997E-02       1   4.580307E+03   1.512344E-01  -1.613403E-02  -4.580307E+03
 3.88997E-02       3   4.576867E+03   8.879383E-01  -1.125700E-01   4.576867E+03
 3.89997E-02       1   4.605070E+03   1.093832E-01   3.854636E-02  -4.605070E+03
 3.89997E-02       3   4.604588E+03   5.725857E-02   1.494638E+00   4.604588E+03
 3.90998E-02       1   4.630407E+03   1.793472E-01   6.486568E-02  -4.630407E+03
 3.90998E-02       3   4.630562E+03  -3.059182E-02  -6.147441E-01   4.630562E+03
 3.91999E-02       1   4.654187E+03   2.698619E-01   1.051903E-01  -4.654187E+03
 3.91999E-02       3   4.656151E+03  -1.977041E-01   3.548917E-01   4.656151E+03
 3.93000E-02       1   4.681860E+03   1.821539E-01   3.377678E-02  -4.681860E+03
 3.93000E-02       3   4.679728E+03   8.974867E-01  -1.152043E+00   4.679728E+03
 3.93997E-02       1   4.703228E+03   3.261006E-01  -8.977860E-02  -4.703228E+03
 3.93997E-02       3   4.707522E+03  -5.515055E-01   4.531457E-01   4.707522E+03
 3.94997E-02       1   4.732199E+03   3.012180E-01   7.894811E-02  -4.732199E+03
 3.94997E-02       3   4.732517E+03  -4.253961E-01   2.757433E-02   4.732517E+03
 3.95998E-02       1   4.755645E+03   4.082286E-01  -9.498502E-02  -4.755645E+03
 3.95998E-02       3   4.759177E+03   1.022132E-01   1.173878E+00   4.759177E+03
 3.96999E-02       1   4.784130E+03   2.783849E-01   7.900552E-02  -4.784130E+03
 3.96999E-02       3   4.785401E+03   3.510078E-01  -3.092433E+00   4.785401E+03
 3.98000E-02       1   4.808539E+03   3.274091E-01   1.611656E-01  -4.808539E+03
 3.98000E-02       3   4.811253E+03   1.709360E-01   7.847362E-02   4.811253E+03
 3.98997E-02       1   4.825366E+03   1.335162E-01   1.193679E+00  -4.825366E+03
 3.98997E-02       3   4.836378E+03  -5.050402E-01   1.237736E+00   4.836378E+03
 3.99998E-02       1   4.861204E+03   2.329498E-01   1.994471E-01  -4.861204E+03
 3.99998E-02       3   4.864276E+03  -2.709044E-01  -1.144556E-02   4.864276E+03
 4.00998E-02       1   4.887202E+03   1.903312E-01  -1.322099E-01  -4.887202E+03
 4.00998E-02       3   4.889361E+03  -5.211347E-02   7.495470E-01   4.889361E+03
 4.01999E-02       1   4.913475E+03   2.428290E-01   1.487458E-01  -4.913475E+03
 4.01999E-02       3   4.914468E+03   1.673466E-02  -4.490701E-01   4.914468E+03
 4.03000E-02       1   4.939854E+03   2.515806E-01   1.093555E-01  -4.939854E+03
 4.03000E-02       3   4.940737E+03  -1.050941E+00   1.189080E+00   4.940737E+03
 4.03997E-02       1   4.964181E+03   2.747207E-01   1.055985E-01  -4.964181E+03
 4.03997E-02       3   4.969402E+03   5.590939E-01   5.713219E-01   4.969402E+03
 4.04998E-02       1   4.988995E+03   3.809563E-01   2.348161E-01  -4.988995E+03
 4.04998E-02       3   4.995600E+03  -3.106236E-01   7.377934E-01   4.995600E+03
 4.05999E-02       1   5.016444E+03   3.461566E-01   2.942935E-01  -5.016444E+03
 4.05999E-02       3   5.022393E+03   6.504249E-01   1.833482E-01   5.022393E+03
 4.06999E-02       1   5.034908E+03   6.817411E-01   1.165495E+00  -5.034908E+03
 4.06999E-02       3   5.049052E+03   5.717948E-01   1.244369E-01   5.049052E+03
 4.07996E-02       1   5.069654E+03   4.740269E-01   3.443116E-01  -5.069654E+03
 4.07996E-02       3   5.073669E+03  -3.016622E-01   2.571456E-01   5.073669E+03
 4.08997E-02       1   5.093890E+03   3.941054E-01  -1.119821E-02  -5.093890E+03
 4.08997E-02       3   5.102354E+03  -3.285691E-01  -2.477449E-01   5.102354E+03
 4.09998E-02       1   5.122649E+03   3.774772E-01   2.018670E-01  -5.122649E+03
 4.09998E-02       3   5.130761E+03  -1.417098E-02   3.882517E-01   5.130761E+03
 4.10999E-02       1   5.143973E+03   4.458802E-01   3.011031E-01  -5.143973E+03
 4.10999E-02       3   5.157570E+03  -1.710596E-01  -6.003560E-01   5.157570E+03
 4.11999E-02       1   5.176113E+03   4.825699E-01   2.229739E-01  -5.176113E+03
 4.11999E-02       3   5.182513E+03  -2.212577E-01   1.630927E+00   5.182513E+03
 4.12997E-02       1   5.200498E+03   4.497256E-01   5.148357E-01  -5.200498E+03
 4.12997E-02       3   5.207689E+03  -7.417920E-02  -9.703451E-01   5.207689E+03
 4.13997E-02       1   5.227058E+03   3.855726E-01   3.688180E-01  -5.227058E+03
 4.13997E-02       3   5.238168E+03  -7.020096E-02   1.003280E+00   5.238168E+03
 4.14998E-02       1   5.255568E+03   3.951301E-01   2.784142E-01  -5.255568E+03
 4.14998E-02       3   5.261474E+03   2.568780E-01   3.656908E-01   5.261474E+03
 4.15999E-02       1   5.282720E+03   2.871381E-01   1.404053E-01  -5.282720E+03
 4.15999E-02       3   5.286892E+03   2.072655E-01   1.412590E+00   5.286892E+03
 4.17000E-02       1   5.305684E+03   3.147848E-01   1.816058E-01  -5.305684E+03
 4.17000E-02       3   5.316599E+03  -1.687601E-01   1.258090E-01   5.316599E+03
 4.17997E-02       1   5.335225E+03   3.600103E-01   3.405603E-01  -5.335225E+03
 4.17997E-02       3   5.344069E+03  -4.108507E-01   2.687306E-01   5.344069E+03
 4.18998E-02       1   5.364107E+03   7.411817E-02   2.982215E-01  -5.364107E+03
 4.18998E-02       3   5.365884E+03   2.779585E-01  -7.915651E-01   5.365884E+03
 4.19998E-02       1   5.385461E+03   1.772253E-01   2.686578E-01  -5.385461E+03
 4.19998E-02       3   5.398351E+03  -5.643790E-01   7.504985E-01   5.398351E+03
 4.20999E-02       1   5.411312E+03   9.324947E-01   1.143395E+00  -5.411312E+03
 4.20999E-02       3   5.424600E+03   2.647286E-01  -2.507490E-01   5.424600E+03
 4.22000E-02       1   5.444004E+03   3.401014E-01   2.707582E-01  -5.444004E+03
 4.22000E-02       3   5.447200E+03  -1.409665E-01   7.942155E-01   5.447200E+03
 4.22997E-02       1   5.466598E+03   4.306055E-01   2.942730E-01  -5.466598E+03
 4.22997E-02       3   5.477198E+03   1.341415E-01  -3.021610E-01   5.477198E+03
 4.23998E-02       1   5.497256E+03   4.251073E-01   2.935907E-01  -5.497256E+03
 4.23998E-02       3   5.504716E+03   2.492873E-01   7.101166E-01   5.504716E+03
 4.24998E-02       1   5.520715E+03   2.362323E-01   4.832384E-01  -5.520715E+03
 4.24998E-02       3   5.530853E+03   3.425988E-01  -2.201422E-01   5.530853E+03
 4.25999E-02       1   5.547770E+03   2.105601E-01   4.290153E-01  -5.547770E+03
 4.25999E-02       3   5.559245E+03   1.783629E-01   4.245515E-01   5.559245E+03
 4.27000E-02       1   5.579687E+03   3.190647E-01   3.177819E-01  -5.579687E+03
 4.27000E-02       3   5.584952E+03  -2.525210E-01   6.411341E-01   5.584952E+03
 4.27997E-02       1   5.606837E+03   3.539995E-01   1.811934E-01  -5.606837E+03
 4.27997E-02       3   5.612745E+03  -8.330306E-01   1.331900E+00   5.612745E+03
 4.28998E-02       1   5.630611E+03  -6.636605E-01   7.136042E-01  -5.630611E+03
 4.28998E-02       3   5.639999E+03   2.380221E-01   1.011553E+00   5.639999E+03
 4.29999E-02       1   5.655481E+03   4.506836E-01   2.798985E-02  -5.655481E+03
 4.29999E-02       3   5.669894E+03  -2.719280E-01   1.546833E+00   5.669894E+03
 4.30999E-02       1   5.689919E+03   4.223772E-01   1.796034E-01  -5.689919E+03
 4.30999E-02       3   5.696661E+03  -3.612607E-01   3.326965E-01   5.696661E+03
 4.31997E-02       1   5.711834E+03   2.363164E-01   4.886883E-01  -5.711834E+03
 4.31997E-02       3   5.719954E+03   1.340507E-01  -1.633226E+00   5.719954E+03
 4.32997E-02       1   5.742834E+03   2.574447E-01   7.905126E-02  -5.742834E+03
 4.32997E-02       3   5.750309E+03   4.993116E-01   6.498611E-01   5.750309E+03
 4.33998E-02       1   5.773386E+03   1.565119E-01   6.081327E-02  -5.773386E+03
 4.33998E-02       3   5.775465E+03   2.197336E-02   7.496104E-01   5.775465E+03
 4.34999E-02       1   5.798393E+03   2.062214E-01   3.691538E-01  -5.798393E+03
 4.34999E-02       3   5.804106E+03  -7.880609E-01  -6.490325E-01   5.804106E+03
 4.36000E-02       1   5.828525E+03  -5.091344E-02  -1.465719E-02  -5.828525E+03
 4.36000E-02       3   5.831683E+03  -2.715517E-02   9.467031E-01   5.831683E+03
 4.36997E-02       1   5.851766E+03  -2.081467E-01   2.731180E-01  -5.851766E+03
 4.36997E-02       3   5.859848E+03  -3.005962E-01  -7.624299E-01   5.859848E+03
 4.37998E-02       1   5.881016E+03  -6.568342E-03   5.110497E-02  -5.881016E+03
 4.37998E-02       3   5.889060E+03  -1.275767E-01   5.716844E-01   5.889060E+03
 4.38998E-02       1   5.907598E+03   4.469886E-01   4.109008E-01  -5.907598E+03
 4.38998E-02       3   5.911514E+03   2.730089E-01   1.060537E+00   5.911514E+03
 4.39999E-02       1   5.920469E+03   2.755576E+00   1.341613E+00  -5.920469E+03
 4.39999E-02       3   5.943033E+03   4.251503E-01  -6.038294E-01   5.943033E+03
 4.41000E-02       1   5.959804E+03   5.943586E-01   2.544925E-01  -5.959804E+03
 4.41000E-02       3   5.971074E+03  -1.322892E+00   1.699195E-01   5.971074E+03
 4.41997E-02       1   5.992146E+03   4.744218E-01   2.156611E-01  -5.992146E+03
 4.41997E-02       3   5.990784E+03  -1.300395E-01   1.425145E+00   5.990784E+03
 4.42998E-02       1   6.014129E+03   5.000930E-01   1.993953E-01  -6.014129E+03
 4.42998E-02       3   6.025603E+03   1.087134E+00   7.134488E-01   6.025603E+03
 4.43998E-02       1   6.043668E+03   6.297825E-01   4.337824E-01  -6.043668E+03
 4.43998E-02       3   6.053388E+03   6.774211E-01   1.194812E-01   6.053388E+03
 4.44999E-02       1   6.076793E+03   6.254572E-01   4.387397E-02  -6.076793E+03
 4.44999E-02       3   6.079728E+03  -1.819371E-01   1.052517E+00   6.079728E+03
 4.46000E-02       1   6.104200E+03   2.036613E-01   1.646693E-01  -6.104200E+03
 4.46000E-02       3   6.107793E+03   4.578406E-01  -2.381918E-02   6.107793E+03
 4.46997E-02       1   6.131923E+03   3.077217E-01   4.861746E-02  -6.131923E+03
 4.46997E-02       3   6.138643E+03  -3.141686E-01   4.872151E-01   6.138643E+03
 4.47998E-02       1   6.161443E+03   1.155311E-01  -2.165012E-03  -6.161443E+03
 4.47998E-02       3   6.166558E+03   2.897404E-01   4.282862E-01   6.166558E+03
 4.48999E-02       1   6.187024E+03   5.708265E-01   2.085764E-01  -6.187024E+03
 4.48999E-02       3   6.195900E+03  -6.250927E-01   1.086201E-01   6.195900E+03
 4.49999E-02       1   6.212908E+03   8.575764E-01   3.504105E-01  -6.212908E+03
 4.49999E-02       3   6.223859E+03  -2.174450E+00  -1.390749E+00   6.223859E+03
 4.50997E-02       1   6.241231E+03   9.130346E-01   2.117865E-01  -6.241231E+03
 4.50997E-02       3   6.258377E+03  -3.114389E-01   8.287240E-01   6.258377E+03
 4.51997E-02       1   6.269797E+03   8.467081E-01   4.088090E-01  -6.269797E+03
 4.51997E-02       3   6.278653E+03   1.843495E-01   1.386157E+00   6.278653E+03
 4.52998E-02       1   6.296567E+03   1.156547E+00   3.835286E-01  -6.296567E+03
 4.52998E-02       3   6.306661E+03  -1.538797E+00   4.734221E-01   6.306661E+03
 4.53999E-02       1   6.326550E+03   9.263233E-01   2.353733E-01  -6.326550E+03
 4.53999E-02       3   6.333119E+03   1.315906E+00   1.103803E+00   6.333119E+03
 4.55000E-02       1   6.350922E+03   5.953288E-01   4.502863E-01  -6.350922E+03
 4.55000E-02       3   6.365445E+03   9.889802E-01   7.078536E-01   6.365445E+03
 4.55997E-02       1   6.385085E+03   7.317836E-01   2.837187E-01  -6.385085E+03
 4.55997E-02       3   6.392432E+03  -1.018869E+00  -1.237312E-01   6.392432E+03
 4.56998E-02       1   6.415490E+03   6.747577E-01   2.312316E-01  -6.415490E+03
 4.56998E-02       3   6.421804E+03  -1.596749E+00  -7.528783E-01   6.421804E+03
 4.57998E-02       1   6.442739E+03   3.987144E-01   2.179781E-01  -6.442739E+03
 4.57998E-02       3   6.451572E+03   1.209355E+00   8.642790E-02   6.451572E+03
 4.58999E-02       1   6.471785E+03   3.674615E-01   2.148948E-01  -6.471785E+03
 4.58999E-02       3   6.480323E+03   6.200727E-01   1.354664E+00   6.480323E+03
 4.60000E-02       1   6.504894E+03   2.451454E-01   1.247911E-01  -6.504894E+03
 4.60000E-02       3   6.504872E+03  -5.620300E-01  -2.291259E-01   6.504872E+03
 4.60997E-02       1   6.535430E+03   1.789387E-01  -2.324203E-01  -6.535430E+03
 4.60997E-02       3   6.536022E+03  -4.483975E-01   7.128504E-01   6.536022E+03
 4.61998E-02       1   6.561860E+03   6.305586E-02   8.124505E-02  -6.561860E+03
 4.61998E-02       3   6.564568E+03  -1.245943E+00  -9.338543E-01   6.564568E+03
 4.62998E-02       1   6.591530E+03   2.470321E-01  -8.595272E-02  -6.591530E+03
 4.62998E-02       3   6.597894E+03  -9.594472E-01   1.972963E-01   6.597894E+03
 4.63999E-02       1   6.619440E+03   1.993572E-01  -7.195797E-02  -6.619440E+03
 4.63999E-02       3   6.625022E+03   1.879967E-02  -4.205370E-01   6.625022E+03
 4.65000E-02       1   6.648766E+03  -2.962853E-02  -4.305626E-02  -6.648766E+03
 4.65000E-02       3   6.654604E+03   8.465736E-01  -6.573874E-01   6.654604E+03
 4.65997E-02       1   6.678417E+03   2.891425E-01   4.401376E-02  -6.678417E+03
 4.65997E-02       3   6.681528E+03   4.320413E-01   1.372654E+00   6.681528E+03
 4.66998E-02       1   6.708876E+03   5.347412E-02  -2.031242E-01  -6.708876E+03
 4.66998E-02       3   6.707406E+03   2.645100E-01  -3.012072E+00   6.707406E+03
 4.67999E-02       1   6.741781E+03   6.438553E-02  -3.449294E-01  -6.741781E+03
 4.67999E-02       3   6.741260E+03  -1.022885E+00   8.803210E-01   6.741260E+03
 4.68999E-02       1   6.768788E+03  -6.031086E-02  -3.214132E-01  -6.768788E+03
 4.68999E-02       3   6.771388E+03  -6.204696E-01   1.022196E-01   6.771388E+03
 4.69997E-02       1   6.798213E+03  -2.146412E-01  -2.190072E-01  -6.798213E+03
 4.69997E-02       3   6.800800E+03  -3.225154E-01  -1.944353E-02   6.800800E+03
 4.70997E-02       1   6.830940E+03   7.304193E-02  -3.740108E-01  -6.830940E+03
 4.70997E-02       3   6.830632E+03  -6.171966E-01   1.230754E+00   6.830632E+03
 4.71998E-02       1   6.860924E+03   2.789929E-02   9.879288E-01  -6.860924E+03
 4.71998E-02       3   6.860706E+03   1.507764E-01   9.028860E-02   6.860706E+03
 4.72999E-02       1   6.894833E+03   9.484147E-02   4.476119E-02  -6.894833E+03
 4.72999E-02       3   6.892042E+03   2.686587E-02   5.904633E-01   6.892042E+03
 4.74000E-02       1   6.925912E+03  -1.685673E-02   1.114703E-01  -6.925912E+03
 4.74000E-02       3   6.925699E+03  -2.807109E-02  -8.758487E-02   6.925699E+03
 4.74997E-02       1   6.959361E+03   5.327897E-02  -1.673031E-02  -6.959361E+03
 4.74997E-02       3   6.938268E+03   1.896537E-01  -1.389405E+01   6.938268E+03
 4.75998E-02       1   6.991003E+03  -1.430087E-01  -1.826218E-02  -6.991003E+03
 4.75998E-02       3   6.990882E+03   2.286865E-02  -1.045852E-01   6.990882E+03
 4.76998E-02       1   7.025456E+03   6.315060E-02  -2.762817E-02  -7.025456E+03
 4.76998E-02       3   7.021763E+03  -6.478939E-01   1.031208E-01   7.021763E+03
 4.77999E-02       1   7.058306E+03   4.448974E-02  -9.398759E-02  -7.058306E+03
 4.77999E-02       3   7.052118E+03  -7.951490E-01  -4.450876E-02   7.052118E+03
 4.79000E-02       1   7.091214E+03   7.477292E-02  -5.139678E-02  -7.091214E+03
 4.79000E-02       3   7.084757E+03   4.204189E-02   1.221167E+00   7.084757E+03
 4.79997E-02       1   7.124367E+03   1.020996E-01  -5.799916E-02  -7.124367E+03
 4.79997E-02       3   7.116312E+03   3.753899E-01   7.883020E-01   7.116312E+03
 4.80998E-02       1   7.157358E+03   1.132538E-01  -7.977365E-02  -7.157358E+03
 4.80998E-02       3   7.149032E+03   6.958333E-02   4.771924E-01   7.149032E+03
 4.81999E-02       1   7.190243E+03   1.024772E-01  -1.711963E-01  -7.190243E+03
 4.81999E-02       3   7.182250E+03  -2.172439E-02  -7.397487E-02   7.182250E+03
 4.82999E-02       1   7.223599E+03   7.349103E-02  -1.944350E-01  -7.223599E+03
 4.82999E-02       3   7.216291E+03   1.070013E-01   3.275441E-01   7.216291E+03
 4.83996E-02       1   7.256948E+03   8.833968E-02  -1.893761E-01  -7.256948E+03
 4.83996E-02       3   7.250027E+03   1.358349E-01   5.453537E-02   7.250027E+03
[...]
 8.78999E-02       3   1.347242E+03  -3.315033E+01  -1.223810E+02   1.347242E+03
 8.79999E-02       1   1.747964E+03   1.667639E+02   1.009003E+02  -1.747964E+03
 8.79999E-02       3   1.811409E+03  -8.660681E+01  -1.563700E+02   1.811409E+03
 8.80997E-02       1   2.158436E+03   2.235758E+02   6.972484E+01  -2.158436E+03
 8.80997E-02       3   2.339253E+03  -1.661491E+02  -1.606065E+02   2.339253E+03
 8.81998E-02       1   2.683473E+03   1.949060E+02   5.015550E+01  -2.683473E+03
 8.81998E-02       3   2.798541E+03  -2.177542E+02  -1.458524E+02   2.798541E+03
 8.82999E-02       1   3.192286E+03   1.616721E+02   4.510583E+01  -3.192286E+03
 8.82999E-02       3   3.200315E+03  -2.395601E+02  -3.504507E+01   3.200315E+03
 8.83999E-02       1   3.589113E+03   1.137768E+02   3.613720E+01  -3.589113E+03
 8.83999E-02       3   3.695838E+03  -1.999360E+02  -6.405883E+00   3.695838E+03
 8.84997E-02       1   3.801512E+03   3.259259E+01   2.773076E+01  -3.801512E+03
 8.84997E-02       3   3.866377E+03  -8.312693E+01  -1.918723E+01   3.866377E+03
 8.85998E-02       1   3.880881E+03   1.545815E+01   2.429430E+01  -3.880881E+03
 8.85998E-02       3   3.828324E+03   2.910168E+01  -2.555009E+01   3.828324E+03
 8.86999E-02       1   3.929496E+03   1.401493E+01   2.543416E+01  -3.929496E+03
 8.86999E-02       3   3.913668E+03  -1.479901E+01  -7.326683E+00   3.913668E+03
 8.87999E-02       1   3.976205E+03   1.302295E+01   2.517749E+01  -3.976205E+03
 8.87999E-02       3   3.964230E+03   2.804505E+01  -4.466680E+01   3.964230E+03
 8.88997E-02       1   4.022194E+03   1.172693E+01   2.510801E+01  -4.022194E+03
 8.88997E-02       3   3.928494E+03   3.983879E+01  -2.644119E+01   3.928494E+03
 8.89998E-02       1   4.066376E+03   9.924549E+00   2.473211E+01  -4.066376E+03
 8.89998E-02       3   3.996518E+03   2.728264E+00  -3.397960E+01   3.996518E+03
 8.90999E-02       1   4.109590E+03   8.871701E+00   2.467630E+01  -4.109590E+03
 8.90999E-02       3   4.071574E+03  -3.125769E+01  -1.423648E+01   4.071574E+03
 8.91999E-02       1   4.152184E+03   8.781300E+00   2.449130E+01  -4.152184E+03
 8.91999E-02       3   4.099941E+03  -6.319863E+01  -3.490569E+01   4.099941E+03
 8.92997E-02       1   4.193952E+03   8.992947E+00   2.428160E+01  -4.193952E+03
 8.92997E-02       3   4.208516E+03  -4.218760E+01  -3.685718E+01   4.208740E+03
 8.93998E-02       1   4.235937E+03   9.582309E+00   2.455768E+01  -4.235937E+03
 8.93998E-02       3   4.293273E+03   8.581738E+00  -2.120554E+01   4.293273E+03
 8.94999E-02       1   4.277286E+03   9.783800E+00   2.464488E+01  -4.277286E+03
 8.94999E-02       3   4.305294E+03   3.727538E+01  -1.897607E+01   4.305294E+03
 8.95999E-02       1   4.318386E+03   9.923959E+00   2.482254E+01  -4.318386E+03
 8.95999E-02       3   4.359058E+03   2.419541E+01  -3.869329E+01   4.359215E+03
 8.96997E-02       1   4.359739E+03   9.187232E+00   2.496418E+01  -4.359739E+03
 8.96997E-02       3   4.382605E+03  -1.642535E+01  -2.007509E+01   4.382605E+03
 8.97998E-02       1   4.400790E+03   8.792276E+00   2.513390E+01  -4.400790E+03
 8.97998E-02       3   4.375172E+03  -3.107506E+01  -1.539823E+01   4.375172E+03
 8.98999E-02       1   4.441304E+03   8.745755E+00   2.525353E+01  -4.441304E+03
 8.98999E-02       3   4.423848E+03  -3.525178E+01  -3.098887E+01   4.423848E+03
 8.99999E-02       1   4.482516E+03   8.787987E+00   2.535253E+01  -4.482516E+03
 8.99999E-02       3   4.446045E+03  -2.538803E+01  -3.084411E+01   4.446045E+03
 9.00997E-02       1   4.523292E+03   8.969973E+00   2.544610E+01  -4.523292E+03
 9.00997E-02       3   4.455299E+03  -2.002042E+00  -2.189985E+01   4.455299E+03
 9.01998E-02       1   4.564421E+03   9.008445E+00   2.553906E+01  -4.564421E+03
 9.01998E-02       3   4.545166E+03   1.594329E+01  -2.531635E+01   4.545166E+03
 9.02999E-02       1   4.605410E+03   8.838604E+00   2.581756E+01  -4.605410E+03
 9.02999E-02       3   4.617707E+03   2.614986E+01  -3.522412E+01   4.617707E+03
 9.03999E-02       1   4.646227E+03   8.362127E+00   2.601943E+01  -4.646227E+03
 9.03999E-02       3   4.667153E+03  -5.963237E+00  -2.767801E+01   4.667153E+03
 9.04997E-02       1   4.686759E+03   8.150130E+00   2.634438E+01  -4.686759E+03
 9.04997E-02       3   4.701343E+03  -3.416399E+01  -2.967012E+01   4.701343E+03
 9.05998E-02       1   4.727478E+03   8.167186E+00   2.656033E+01  -4.727478E+03
 9.05998E-02       3   4.754658E+03  -3.795358E+01  -3.548675E+01   4.754658E+03
 9.06999E-02       1   4.767619E+03   8.377900E+00   2.675113E+01  -4.767619E+03
 9.06999E-02       3   4.782088E+03  -1.066498E+01  -2.232718E+01   4.782088E+03
 9.07999E-02       1   4.807994E+03   8.469959E+00   2.708321E+01  -4.807994E+03
 9.07999E-02       3   4.795779E+03   8.744725E+00  -2.639468E+01   4.795779E+03
 9.08997E-02       1   4.848118E+03   8.542687E+00   2.733723E+01  -4.848118E+03
 9.08997E-02       3   4.812574E+03   1.535644E+01  -2.674580E+01   4.812574E+03
 9.09998E-02       1   4.888010E+03   8.483957E+00   2.771549E+01  -4.888010E+03
 9.09998E-02       3   4.859016E+03   3.548819E+00  -2.436670E+01   4.859016E+03
 9.10999E-02       1   4.927900E+03   8.257703E+00   2.790764E+01  -4.927900E+03
 9.10999E-02       3   4.918203E+03  -9.133545E+00  -2.845227E+01   4.918401E+03
 9.11999E-02       1   2.952631E+03  -5.390577E+00  -9.949015E+02  -2.952631E+03
 9.11999E-02       3   3.573611E+03   9.218865E+00   1.986607E+02   3.573611E+03
 9.12997E-02       1   2.510000E+03  -1.590623E+00  -7.330931E+02  -2.510000E+03
 9.12997E-02       3   2.862741E+03   1.134731E+01   2.712017E+02   2.864985E+03
 9.13998E-02       1   2.743705E+03   5.568200E+00  -7.477149E+02  -2.743705E+03
 9.13998E-02       3   2.700862E+03  -1.383317E+00   2.700568E+02   2.700862E+03
 9.14999E-02       1   2.709298E+03   7.970047E+00  -6.978614E+02  -2.709298E+03
 9.14999E-02       3   2.549688E+03  -4.059139E-01   2.546232E+02   2.551367E+03
 9.15999E-02       1   2.602990E+03   6.826950E+00  -5.940276E+02  -2.602990E+03
 9.15999E-02       3   2.497800E+03  -2.161760E+00   2.496591E+02   2.497800E+03
 9.16997E-02       1   2.453133E+03   6.195703E+00  -4.555728E+02  -2.453133E+03
 9.16997E-02       3   2.515055E+03  -3.125915E+00   2.514466E+02   2.515055E+03
 9.17998E-02       1   2.288788E+03   5.246395E+00  -3.062142E+02  -2.288788E+03
 9.17998E-02       3   2.286840E+03  -2.563817E+00   2.286671E+02   2.286840E+03
 9.18999E-02       1   2.122172E+03   3.730371E+00  -1.547684E+02  -2.122172E+03
 9.18999E-02       3   2.135056E+03  -2.201846E+00   2.134924E+02   2.135087E+03
 9.19999E-02       1   1.980158E+03   3.238043E+00  -2.288972E+01  -1.980158E+03
 9.19999E-02       3   2.023670E+03  -1.749082E+00   2.023586E+02   2.023670E+03
 9.20997E-02       1   1.914946E+03   2.910183E+00   4.533843E+01  -1.914946E+03
 9.20997E-02       3   1.947745E+03  -2.169340E+00   1.947601E+02   1.947745E+03
 9.21998E-02       1   1.875187E+03   2.494909E+00   9.393899E+01  -1.875187E+03
 9.21998E-02       3   1.878973E+03  -1.840401E+00   1.878850E+02   1.878973E+03
 9.22999E-02       1   1.859341E+03   2.314387E+00   1.235261E+02  -1.859341E+03
 9.22999E-02       3   1.873400E+03  -3.289822E+00   1.873100E+02   1.873400E+03
 9.24000E-02       1   1.867877E+03   2.105746E+00   1.339995E+02  -1.867877E+03
 9.24000E-02       3   1.848831E+03  -4.903825E+00   1.848159E+02   1.848831E+03
 9.24997E-02       1   1.901713E+03   2.722049E+00   1.236235E+02  -1.901713E+03
 9.24997E-02       3   1.891615E+03  -3.996627E+00   1.891163E+02   1.891615E+03
 9.25998E-02       1   1.965995E+03   3.279820E+00   8.835130E+01  -1.965995E+03
 9.25998E-02       3   1.941930E+03  -5.934943E+00   1.940981E+02   1.941930E+03
 9.26999E-02       1   2.055129E+03   3.115199E+00   3.275609E+01  -2.055129E+03
 9.26999E-02       3   2.027510E+03  -6.276740E+00   2.026429E+02   2.027510E+03
 9.28000E-02       1   2.164829E+03   2.824007E+00  -4.001414E+01  -2.164829E+03
 9.28000E-02       3   2.144327E+03  -5.262402E+00   2.143598E+02   2.144327E+03
 9.28997E-02       1   2.296925E+03  -3.408740E+00  -1.319802E+02  -2.296925E+03
 9.28997E-02       3   2.253693E+03  -8.299021E+00   2.251828E+02   2.253700E+03
 9.29998E-02       1   2.488500E+03  -8.759520E+00  -2.765058E+02  -2.488500E+03
 9.29998E-02       3   2.471471E+03  -2.057635E+00   2.469982E+02   2.471471E+03
 9.30999E-02       1   2.682186E+03  -9.065011E+00  -4.233751E+02  -2.682186E+03
 9.30999E-02       3   2.674520E+03   1.169507E+00   2.673972E+02   2.674520E+03
 9.32000E-02       1   2.901218E+03  -4.222031E+00  -4.950817E+02  -2.901218E+03
 9.32000E-02       3   2.909470E+03   6.774752E+00   2.907788E+02   2.909470E+03
 9.32997E-02       1   3.049928E+03  -1.479712E+00  -5.673115E+02  -3.049928E+03
 9.32997E-02       3   3.073944E+03   4.750056E+00   3.073195E+02   3.073944E+03
 9.33998E-02       1   3.184321E+03   3.456146E+00  -5.526268E+02  -3.184321E+03
 9.33998E-02       3   3.200207E+03   2.245151E+00   3.199930E+02   3.200207E+03
 9.34999E-02       1   3.272497E+03   7.098412E-01  -5.305566E+02  -3.272497E+03
 9.34999E-02       3   3.304564E+03   5.898334E-01   3.304422E+02   3.304564E+03
 9.36000E-02       1   3.306736E+03   3.309641E-01  -5.126371E+02  -3.306736E+03
 9.36000E-02       3   3.349689E+03   3.842115E-01   3.349482E+02   3.349689E+03
 9.36997E-02       1   3.311388E+03  -1.983978E+00  -4.792621E+02  -3.311388E+03
 9.36997E-02       3   3.321439E+03  -2.182700E+00   3.321177E+02   3.321586E+03
 9.37998E-02       1   3.284281E+03   6.449265E-01  -4.380888E+02  -3.284281E+03
 9.37998E-02       3   3.259019E+03  -2.411675E+00   3.258687E+02   3.259019E+03
 9.38999E-02       1   3.247692E+03   1.790668E+00  -3.624125E+02  -3.247692E+03
 9.38999E-02       3   3.241658E+03  -5.442961E-01   3.241596E+02   3.241658E+03
 9.40000E-02       1   3.205267E+03   1.749977E+00  -2.831959E+02  -3.205267E+03
 9.40000E-02       3   3.203880E+03   3.665486E-01   3.203841E+02   3.203880E+03
 9.40997E-02       1   3.168494E+03   2.165324E+00  -2.124890E+02  -3.168494E+03
 9.40997E-02       3   3.159036E+03  -1.017288E-01   3.159005E+02   3.159036E+03
 9.41998E-02       1   3.148751E+03   2.295283E+00  -1.565480E+02  -3.148751E+03
 9.41998E-02       3   3.126326E+03  -1.568311E-01   3.126277E+02   3.126326E+03
 9.42999E-02       1   3.155643E+03   2.015371E+00  -1.224397E+02  -3.155643E+03
 9.42999E-02       3   3.143515E+03  -1.188465E+00   3.143454E+02   3.143515E+03
 9.44000E-02       1   3.191848E+03   1.876265E+00  -1.149085E+02  -3.191848E+03
 9.44000E-02       3   3.180266E+03  -1.050244E+00   3.180126E+02   3.180266E+03
 9.44997E-02       1   3.259769E+03   1.710169E+00  -1.369349E+02  -3.259769E+03
 9.44997E-02       3   3.253339E+03  -3.598702E+00   3.253045E+02   3.253339E+03
 9.45998E-02       1   3.357276E+03   1.208111E+00  -1.866506E+02  -3.357276E+03
 9.45998E-02       3   3.344922E+03  -3.190934E+00   3.344617E+02   3.344922E+03
 9.46999E-02       1   3.475430E+03   1.450544E-01  -2.567142E+02  -3.475430E+03
 9.46999E-02       3   3.460392E+03   6.231600E-02   3.460099E+02   3.460392E+03
 9.48000E-02       1   3.597611E+03  -5.368487E-01  -3.322641E+02  -3.597611E+03
 9.48000E-02       3   3.609664E+03   1.601874E+00   3.609328E+02   3.609664E+03
 9.48997E-02       1   3.711467E+03  -4.758771E-01  -4.014719E+02  -3.711467E+03
 9.48997E-02       3   3.726401E+03  -3.282102E-02   3.726124E+02   3.726471E+03
 9.49998E-02       1   3.812308E+03   1.520550E-01  -4.599174E+02  -3.812308E+03
 9.49998E-02       3   3.823559E+03  -2.915883E+00   3.823232E+02   3.823559E+03
 9.50999E-02       1   3.897644E+03   1.498234E+00  -5.035032E+02  -3.897644E+03
 9.50999E-02       3   3.902297E+03  -2.136521E+00   3.902106E+02   3.902297E+03
 9.52000E-02       1   3.964044E+03   2.836024E+00  -5.301179E+02  -3.964044E+03
 9.52000E-02       3   3.989875E+03  -2.660609E+00   3.989329E+02   3.989875E+03
 9.52997E-02       1   3.627456E+03  -1.981615E+02  -7.148715E+02  -3.627456E+03
 9.52997E-02       3   3.462693E+03   4.345830E+01   3.432678E+02   3.462693E+03
 9.53998E-02       1   3.632326E+03  -1.857362E+02  -6.702796E+02  -3.632326E+03
 9.53998E-02       3   3.496495E+03   5.419899E+01   3.453783E+02   3.496495E+03
 9.54999E-02       1   3.249384E+03   3.646811E+01  -7.944142E+02  -3.249384E+03
 9.54999E-02       3   2.878455E+03   2.755256E+01   2.864925E+02   2.878455E+03
 9.56000E-02       1   3.075334E+03   4.935318E+01  -6.026051E+02  -3.075334E+03
 9.56000E-02       3   2.967718E+03   2.664035E+01   2.955527E+02   2.967980E+03
 9.56997E-02       1   2.863725E+03   6.164920E+01  -3.810440E+02  -2.863725E+03
 9.56997E-02       3   2.878578E+03   1.768423E+01   2.872995E+02   2.878578E+03
 9.57998E-02       1   2.680194E+03   5.405120E+01  -1.824584E+02  -2.680194E+03
 9.57998E-02       3   2.682046E+03  -1.737341E+00   2.681916E+02   2.682046E+03
 9.58999E-02       1   2.562207E+03   4.029712E+01  -4.651658E+01  -2.562207E+03
 9.58999E-02       3   2.585251E+03   1.418478E+00   2.585174E+02   2.585251E+03
 9.60000E-02       1   2.490479E+03   4.011932E+01   4.675342E+01  -2.490479E+03
 9.60000E-02       3   2.488015E+03  -4.260460E+00   2.487588E+02   2.488015E+03
 9.60997E-02       1   2.449298E+03   3.343494E+01   1.129858E+02  -2.449298E+03
 9.60997E-02       3   2.456468E+03  -1.144444E+01   2.453776E+02   2.456468E+03
 9.61998E-02       1   2.444337E+03   2.922785E+01   1.466867E+02  -2.444337E+03
 9.61998E-02       3   2.473831E+03  -1.434829E+01   2.469633E+02   2.473831E+03
 9.62999E-02       1   2.471072E+03   2.437908E+01   1.509865E+02  -2.471072E+03
 9.62999E-02       3   2.479156E+03  -1.688156E+01   2.473352E+02   2.479156E+03
 9.64000E-02       1   2.534585E+03   2.131662E+01   1.200112E+02  -2.534585E+03
 9.64000E-02       3   2.526710E+03  -3.395388E+01   2.503589E+02   2.526710E+03
 9.64997E-02       1   2.632714E+03   1.901684E+01   5.612653E+01  -2.632714E+03
 9.64997E-02       3   2.624348E+03  -4.276706E+01   2.588780E+02   2.624348E+03
 9.65998E-02       1   2.760255E+03   1.794275E+01  -3.576158E+01  -2.760255E+03
 9.65998E-02       3   2.733278E+03  -6.988717E+01   2.640419E+02   2.733278E+03
 9.66999E-02       1   2.905542E+03   1.715180E+01  -1.450721E+02  -2.905542E+03
 9.66999E-02       3   2.879578E+03  -8.092140E+01   1.603698E+02   2.879578E+03
 9.68000E-02       1   3.089908E+03   2.604541E+01  -2.933924E+02  -3.089908E+03
 9.68000E-02       3   3.064212E+03  -7.381611E+00   1.509881E+02   3.064212E+03
 9.68997E-02       1   3.286805E+03   2.645749E+01  -4.551410E+02  -3.286805E+03
 9.68997E-02       3   3.286448E+03   9.779614E+00   3.255452E+02   3.286448E+03
 9.69998E-02       1   3.453621E+03   2.636911E+01  -5.894897E+02  -3.453621E+03
 9.69998E-02       3   3.477207E+03  -7.327330E-01   3.476252E+02   3.477207E+03
 9.70999E-02       1   3.567610E+03   2.440944E+01  -6.745035E+02  -3.567610E+03
 9.70999E-02       3   3.593559E+03  -1.922449E+01   3.588145E+02   3.593559E+03
 9.72000E-02       1   3.627673E+03   2.171908E+01  -7.087171E+02  -3.627673E+03
 9.72000E-02       3   3.673867E+03  -1.475563E+01   3.670603E+02   3.674011E+03
 9.72997E-02       1   3.644251E+03   1.978968E+01  -7.004027E+02  -3.644251E+03
 9.72997E-02       3   3.672805E+03  -1.132176E+01   3.670934E+02   3.672805E+03
 9.73998E-02       1   3.613170E+03   1.682297E+01  -6.449530E+02  -3.613170E+03
 9.73998E-02       3   3.632066E+03  -1.453584E+01   3.629121E+02   3.632066E+03
 9.74999E-02       1   3.530051E+03   1.379046E+01  -5.406600E+02  -3.530051E+03
 9.74999E-02       3   3.549598E+03  -1.348652E+01   3.546984E+02   3.549598E+03
 9.76000E-02       1   3.416815E+03   1.098912E+01  -4.062009E+02  -3.416815E+03
 9.76000E-02       3   3.415503E+03  -1.056455E+01   3.413835E+02   3.415503E+03
 9.76997E-02       1   3.295355E+03   7.773503E+00  -2.637961E+02  -3.295355E+03
 9.76997E-02       3   3.285467E+03  -1.027851E+01   3.283829E+02   3.285467E+03
 9.77998E-02       1   3.194020E+03   5.345437E+00  -1.408786E+02  -3.194020E+03
 9.77998E-02       3   3.173253E+03  -8.771823E+00   3.171996E+02   3.173253E+03
 9.78999E-02       1   3.172505E+03   2.084699E+01  -5.216178E+01  -3.172505E+03
 9.78999E-02       3   3.165608E+03  -9.062687E+00   3.164222E+02   3.165608E+03
 9.80000E-02       1   3.195920E+03   1.001048E+01   2.467395E+01  -3.195920E+03
 9.80000E-02       3   3.176253E+03  -1.426420E+01   3.172827E+02   3.176253E+03
 9.80997E-02       1   3.233947E+03   7.462154E+00   3.615575E+01  -3.233947E+03
 9.80997E-02       3   3.227860E+03  -1.690686E+01   3.223298E+02   3.227860E+03
 9.81998E-02       1   3.308009E+03   6.385446E+00   7.629242E+00  -3.308009E+03
 9.81998E-02       3   3.286654E+03  -2.232318E+01   3.278912E+02   3.286654E+03
 9.82999E-02       1   3.422083E+03  -4.345099E+00  -6.670523E+01  -3.422083E+03
 9.82999E-02       3   3.402861E+03  -2.619386E+01   3.392482E+02   3.402861E+03
 9.84000E-02       1   3.607557E+03  -7.359695E+00  -2.158096E+02  -3.607557E+03
 9.84000E-02       3   3.607494E+03  -2.462422E+00   3.604038E+02   3.607494E+03
 9.84997E-02       1   3.801464E+03  -5.858407E+00  -3.777483E+02  -3.801464E+03
 9.84997E-02       3   3.807730E+03   8.955596E+00   3.695620E+02   3.808001E+03
 9.85998E-02       1   3.948747E+03  -3.876128E+00  -4.975294E+02  -3.948747E+03
 9.85998E-02       3   3.946548E+03   1.986388E+01   3.877814E+02   3.946548E+03
 9.86999E-02       1   4.055521E+03  -7.554458E-01  -5.779023E+02  -4.055521E+03
 9.86999E-02       3   4.085296E+03   2.737759E-01   4.081780E+02   4.085296E+03
 9.88000E-02       1   4.131377E+03  -5.330932E-01  -6.290406E+02  -4.131377E+03
 9.88000E-02       3   4.135419E+03  -6.464377E+00   4.134485E+02   4.135419E+03
 9.88997E-02       1   4.176251E+03  -3.387511E-01  -6.551158E+02  -4.176251E+03
 9.88997E-02       3   4.192194E+03  -5.583672E+00   4.191644E+02   4.192194E+03
 9.89998E-02       1   4.204741E+03   4.975791E-01  -6.549580E+02  -4.204741E+03
 9.89998E-02       3   4.214787E+03   6.097148E-01   4.214602E+02   4.214787E+03
 9.90999E-02       1   4.217334E+03   4.103523E+00  -6.469507E+02  -4.217334E+03
 9.90999E-02       3   4.222030E+03  -7.738189E-02   4.221968E+02   4.222030E+03
 9.92000E-02       1   4.216525E+03   2.652902E+00  -6.124576E+02  -4.216525E+03
 9.92000E-02       3   4.214649E+03  -5.697474E-01   4.214617E+02   4.214649E+03
 9.92997E-02       1   4.184282E+03   2.603140E+00  -5.465049E+02  -4.184282E+03
 9.92997E-02       3   4.176627E+03  -6.122994E-01   4.176599E+02   4.176627E+03
 9.93998E-02       1   4.129145E+03   3.219643E+00  -4.578211E+02  -4.129145E+03
 9.93998E-02       3   4.122557E+03  -3.141598E-01   4.122481E+02   4.122557E+03
 9.94999E-02       1   4.066015E+03   1.925730E+00  -3.613475E+02  -4.066015E+03
 9.94999E-02       3   4.053014E+03  -1.832607E+00   4.052444E+02   4.053014E+03
 9.95996E-02       1   4.010818E+03   2.311120E+00  -2.744356E+02  -4.010818E+03
 9.95996E-02       3   3.987059E+03  -2.285838E+00   3.986915E+02   3.987059E+03
 9.96997E-02       1   3.976123E+03   1.658143E+00  -2.110725E+02  -3.976123E+03
 9.96997E-02       3   3.971342E+03  -2.461666E+00   3.971228E+02   3.971342E+03
 9.97998E-02       1   3.975568E+03   1.537791E+00  -1.816565E+02  -3.975568E+03
 9.97998E-02       3   3.979110E+03  -3.006675E+00   3.978848E+02   3.979110E+03
 9.98999E-02       1   4.008340E+03   8.636736E-01  -1.946152E+02  -4.008340E+03
 9.98999E-02       3   4.007319E+03  -1.122578E+00   4.007222E+02   4.007319E+03
 9.99997E-02       1   4.082243E+03  -9.980651E-01  -2.455338E+02  -4.082243E+03
 9.99997E-02       3   4.081706E+03  -4.556544E-02   4.081657E+02   4.081706E+03
