 LS-DYNA keyword deck by LS-PrePost                                      
                         ls-dyna smp.129956 s           date 08/27/2018

{BEGIN LEGEND}
 Entity #        Title
      293                                                                                     
     4282                                                                                     
{END LEGEND}




 n o d a l   p r i n t   o u t   f o r   t i m e  s t e p       1                              ( at time 0.0000000E+00 )

 nodal point  x-disp     y-disp      z-disp      x-vel       y-vel       z-vel      x-accl      y-accl      z-accl      x-coor      y-coor      z-coor
      293  0.00000E+00 0.00000E+00 0.00000E+00 0.00000E+00 0.00000E+00 0.00000E+00 0.00000E+00 0.00000E+00 0.00000E+00 1.42108E-14-1.00000E+01 1.25000E+00
     4282  0.00000E+00 0.00000E+00 0.00000E+00 0.00000E+00 0.00000E+00 0.00000E+00 0.00000E+00 0.00000E+00 0.00000E+00 1.54355E-14 1.00000E+01 1.25000E+00



 n o d a l   p r i n t   o u t   f o r   t i m e  s t e p       1                              ( at time 0.0000000E+00 )

 nodal point  x-rot      y-rot       z-rot       x-rot vel   y-rot vel   z-rot vel   x-rot acc   y-rot acc   z-rot acc
      293  0.00000E+00 0.00000E+00 0.00000E+00 0.00000E+00 0.00000E+00 0.00000E+00 0.00000E+00 0.00000E+00 0.00000E+00
     4282  0.00000E+00 0.00000E+00 0.00000E+00 0.00000E+00 0.00000E+00 0.00000E+00 0.00000E+00 0.00000E+00 0.00000E+00



 n o d a l   p r i n t   o u t   f o r   t i m e  s t e p      24                              ( at time 1.9225332E-03 )

 nodal point  x-disp     y-disp      z-disp      x-vel       y-vel       z-vel      x-accl      y-accl      z-accl      x-coor      y-coor      z-coor
      293  0.00000E+00 0.00000E+00 0.00000E+00 0.00000E+00 0.00000E+00 0.00000E+00 0.00000E+00 0.00000E+00 0.00000E+00 1.42108E-14-1.00000E+01 1.25000E+00
     4282  0.00000E+00 0.00000E+00 0.00000E+00 0.00000E+00 0.00000E+00 0.00000E+00 0.00000E+00 0.00000E+00 0.00000E+00 1.54355E-14 1.00000E+01 1.25000E+00



 n o d a l   p r i n t   o u t   f o r   t i m e  s t e p      24                              ( at time 1.9225332E-03 )

 nodal point  x-rot      y-rot       z-rot       x-rot vel   y-rot vel   z-rot vel   x-rot acc   y-rot acc   z-rot acc
      293  0.00000E+00 0.00000E+00 0.00000E+00 0.00000E+00 0.00000E+00 0.00000E+00 0.00000E+00 0.00000E+00 0.00000E+00
     4282  0.00000E+00 0.00000E+00 0.00000E+00 0.00000E+00 0.00000E+00 0.00000E+00 0.00000E+00 0.00000E+00 0.00000E+00



 n o d a l   p r i n t   o u t   f o r   t i m e  s t e p      48                              ( at time 3.9286547E-03 )

 nodal point  x-disp     y-disp      z-disp      x-vel       y-vel       z-vel      x-accl      y-accl      z-accl      x-coor      y-coor      z-coor
      293  0.00000E+00 0.00000E+00 0.00000E+00 0.00000E+00 0.00000E+00 0.00000E+00 0.00000E+00 0.00000E+00 0.00000E+00 1.42108E-14-1.00000E+01 1.25000E+00
     4282  0.00000E+00 0.00000E+00 0.00000E+00 0.00000E+00 0.00000E+00 0.00000E+00 0.00000E+00 0.00000E+00 0.00000E+00 1.54355E-14 1.00000E+01 1.25000E+00



 n o d a l   p r i n t   o u t   f o r   t i m e  s t e p      48                              ( at time 3.9286547E-03 )

 nodal point  x-rot      y-rot       z-rot       x-rot vel   y-rot vel   z-rot vel   x-rot acc   y-rot acc   z-rot acc
      293  0.00000E+00 0.00000E+00 0.00000E+00 0.00000E+00 0.00000E+00 0.00000E+00 0.00000E+00 0.00000E+00 0.00000E+00
     4282  0.00000E+00 0.00000E+00 0.00000E+00 0.00000E+00 0.00000E+00 0.00000E+00 0.00000E+00 0.00000E+00 0.00000E+00



 n o d a l   p r i n t   o u t   f o r   t i m e  s t e p      72                              ( at time 5.9347763E-03 )

 nodal point  x-disp     y-disp      z-disp      x-vel       y-vel       z-vel      x-accl      y-accl      z-accl      x-coor      y-coor      z-coor
      293  3.42663E-31-4.15573E-32 1.03624E-33 3.47749E-27-6.09816E-28 1.22054E-29-1.55734E-22-5.45879E-24-1.93971E-25 1.42108E-14-1.00000E+01 1.25000E+00
     4282  0.00000E+00 0.00000E+00 0.00000E+00 0.00000E+00 0.00000E+00 0.00000E+00 0.00000E+00 0.00000E+00 0.00000E+00 1.54355E-14 1.00000E+01 1.25000E+00



 n o d a l   p r i n t   o u t   f o r   t i m e  s t e p      72                              ( at time 5.9347763E-03 )

 nodal point  x-rot      y-rot       z-rot       x-rot vel   y-rot vel   z-rot vel   x-rot acc   y-rot acc   z-rot acc
      293  4.94455E-33 1.07971E-31 0.00000E+00 7.55250E-29 1.75746E-27 0.00000E+00 2.16446E-24 5.40075E-23 0.00000E+00
     4282  0.00000E+00 0.00000E+00 0.00000E+00 0.00000E+00 0.00000E+00 0.00000E+00 0.00000E+00 0.00000E+00 0.00000E+00



 n o d a l   p r i n t   o u t   f o r   t i m e  s t e p      96                              ( at time 7.9408978E-03 )

 nodal point  x-disp     y-disp      z-disp      x-vel       y-vel       z-vel      x-accl      y-accl      z-accl      x-coor      y-coor      z-coor
      293 -1.07116E-21 4.55517E-22-1.94997E-24-1.33062E-17 8.98800E-18 9.69613E-21 2.81432E-13-4.57161E-15 1.53569E-15 1.42108E-14-1.00000E+01 1.25000E+00
     4282  0.00000E+00 0.00000E+00 0.00000E+00 0.00000E+00 0.00000E+00 0.00000E+00 0.00000E+00 0.00000E+00 0.00000E+00 1.54355E-14 1.00000E+01 1.25000E+00



 n o d a l   p r i n t   o u t   f o r   t i m e  s t e p      96                              ( at time 7.9408978E-03 )

 nodal point  x-rot      y-rot       z-rot       x-rot vel   y-rot vel   z-rot vel   x-rot acc   y-rot acc   z-rot acc
      293 -2.45043E-23 1.70419E-22 0.00000E+00-2.87443E-19 4.10775E-18 0.00000E+00 6.50573E-15 1.30345E-14 0.00000E+00
     4282  0.00000E+00 0.00000E+00 0.00000E+00 0.00000E+00 0.00000E+00 0.00000E+00 0.00000E+00 0.00000E+00 0.00000E+00



 n o d a l   p r i n t   o u t   f o r   t i m e  s t e p     120                              ( at time 9.9470194E-03 )

 nodal point  x-disp     y-disp      z-disp      x-vel       y-vel       z-vel      x-accl      y-accl      z-accl      x-coor      y-coor      z-coor
      293 -2.47539E-17-6.71991E-15-2.67443E-19-4.70650E-13-3.70673E-11-2.56574E-15 5.28593E-09-7.43108E-07 7.70109E-11 1.41861E-14-1.00000E+01 1.25000E+00
     4282 -8.00400E-38-1.83573E-34-9.59749E-42 3.32979E-35-9.77405E-31 7.76530E-38 1.65982E-32-4.87211E-28 3.87080E-35 1.54355E-14 1.00000E+01 1.25000E+00



 n o d a l   p r i n t   o u t   f o r   t i m e  s t e p     120                              ( at time 9.9470194E-03 )

 nodal point  x-rot      y-rot       z-rot       x-rot vel   y-rot vel   z-rot vel   x-rot acc   y-rot acc   z-rot acc
      293 -2.72565E-19 2.18283E-18 0.00000E+00-1.10411E-14 1.33385E-13 0.00000E+00 1.18951E-12 3.27635E-10 0.00000E+00
     4282 -4.89396E-40 9.58225E-39 0.00000E+00-7.56163E-37 5.55776E-34 0.00000E+00-3.76928E-34 2.77040E-31 0.00000E+00



 n o d a l   p r i n t   o u t   f o r   t i m e  s t e p     144                              ( at time 1.1953141E-02 )

 nodal point  x-disp     y-disp      z-disp      x-vel       y-vel       z-vel      x-accl      y-accl      z-accl      x-coor      y-coor      z-coor
      293  2.83267E-15-4.54973E-09 9.83827E-18 3.19618E-11-1.68324E-05-5.49392E-14-5.34779E-07-7.53994E-02-1.48161E-10 1.70435E-14-1.00000E+01 1.25000E+00
     4282 -9.27659E-28-4.91942E-24-3.53659E-31-1.28713E-23-4.30570E-20-3.71343E-28 1.47757E-20-1.10647E-15 2.58301E-22 1.54355E-14 1.00000E+01 1.25000E+00



 n o d a l   p r i n t   o u t   f o r   t i m e  s t e p     144                              ( at time 1.1953141E-02 )

 nodal point  x-rot      y-rot       z-rot       x-rot vel   y-rot vel   z-rot vel   x-rot acc   y-rot acc   z-rot acc
      293  2.82803E-17-4.69415E-16 0.00000E+00 5.54545E-13 3.64202E-12 0.00000E+00-5.12527E-09 1.34578E-07 0.00000E+00
     4282 -3.83888E-30-5.78906E-29 0.00000E+00-6.81800E-26 1.48184E-24 0.00000E+00 2.02031E-22 1.00969E-19 0.00000E+00



 n o d a l   p r i n t   o u t   f o r   t i m e  s t e p     168                              ( at time 1.3959263E-02 )

 nodal point  x-disp     y-disp      z-disp      x-vel       y-vel       z-vel      x-accl      y-accl      z-accl      x-coor      y-coor      z-coor
      293 -3.66100E-14-4.82866E-07 8.65781E-17-1.56207E-10-4.50555E-04-5.58184E-13 1.27191E-06-2.23265E-01-6.51192E-09-2.23992E-14-1.00000E+01 1.25000E+00
     4282  1.07147E-21-2.74101E-14 1.95602E-23-8.95471E-18-1.67930E-10-1.06890E-19-5.51357E-14-1.97294E-06 5.30616E-15 1.54355E-14 1.00000E+01 1.25000E+00



 n o d a l   p r i n t   o u t   f o r   t i m e  s t e p     168                              ( at time 1.3959263E-02 )

 nodal point  x-rot      y-rot       z-rot       x-rot vel   y-rot vel   z-rot vel   x-rot acc   y-rot acc   z-rot acc
      293 -9.95435E-15-7.25065E-15-9.13610E-30-1.09743E-11-5.54472E-11-2.52618E-26 1.71961E-07 1.09873E-06-3.46378E-22
     4282 -4.38035E-22-1.53166E-23 0.00000E+00-2.43619E-18 4.40488E-18 0.00000E+00-4.29094E-14 7.41300E-14 0.00000E+00



 n o d a l   p r i n t   o u t   f o r   t i m e  s t e p     192                              ( at time 1.5965384E-02 )

 nodal point  x-disp     y-disp      z-disp      x-vel       y-vel       z-vel      x-accl      y-accl      z-accl      x-coor      y-coor      z-coor
      293 -2.07624E-14-1.83272E-06 4.59777E-16-6.39675E-12-8.84639E-04 2.48736E-11 1.15628E-07-2.73504E-01-1.54187E-07-6.55160E-15-1.00000E+01 1.25000E+00
     4282  2.16707E-16-6.31600E-09 7.67487E-18 1.82439E-14-2.14172E-05-1.53755E-14 7.22674E-09-8.20198E-02 5.69915E-11 1.56522E-14 1.00000E+01 1.25000E+00



 n o d a l   p r i n t   o u t   f o r   t i m e  s t e p     192                              ( at time 1.5965384E-02 )

 nodal point  x-rot      y-rot       z-rot       x-rot vel   y-rot vel   z-rot vel   x-rot acc   y-rot acc   z-rot acc
      293 -7.12426E-15-6.57456E-15-2.15459E-28-2.21901E-11-3.06648E-11-1.71624E-25 2.44862E-07 3.38600E-07-1.52605E-21
     4282  3.22554E-17-1.39934E-17 0.00000E+00-2.94379E-13-4.92071E-14 0.00000E+00 4.71332E-09 1.74808E-09 0.00000E+00



 n o d a l   p r i n t   o u t   f o r   t i m e  s t e p     216                              ( at time 1.7971506E-02 )

 nodal point  x-disp     y-disp      z-disp      x-vel       y-vel       z-vel      x-accl      y-accl      z-accl      x-coor      y-coor      z-coor
      293 -3.09189E-14-4.27796E-06 2.22074E-15 2.08049E-10-1.59409E-03-4.85258E-12-1.44535E-06-3.81863E-01 4.36508E-08-1.67080E-14-1.00000E+01 1.25000E+00
     4282 -6.04575E-15-3.95492E-07 4.26132E-16 1.31568E-11-3.76095E-04 3.26011E-12 3.64047E-07-2.25120E-01-7.88124E-09 9.38975E-15 1.00000E+01 1.25000E+00



 n o d a l   p r i n t   o u t   f o r   t i m e  s t e p     216                              ( at time 1.7971506E-02 )

 nodal point  x-rot      y-rot       z-rot       x-rot vel   y-rot vel   z-rot vel   x-rot acc   y-rot acc   z-rot acc
      293 -2.40253E-14 4.82273E-16 8.53752E-28 9.75245E-12-1.02600E-10 2.21690E-24-1.22454E-06 7.49610E-07-9.07535E-21
     4282 -2.95490E-16-1.31570E-15 4.72816E-30-1.73002E-11-1.00113E-11 1.28862E-26 8.45458E-08 2.12518E-07-8.88135E-23



 n o d a l   p r i n t   o u t   f o r   t i m e  s t e p     240                              ( at time 1.9977627E-02 )

 nodal point  x-disp     y-disp      z-disp      x-vel       y-vel       z-vel      x-accl      y-accl      z-accl      x-coor      y-coor      z-coor
      293 -3.63794E-14-8.32695E-06 1.16776E-14 3.79605E-10-2.40039E-03 3.40749E-12 3.72900E-06-5.03069E-01-2.70256E-07-2.21685E-14-1.00000E+01 1.25000E+00
     4282 -4.18248E-14-1.56514E-06-2.33812E-15-3.31485E-10-7.42077E-04-6.11952E-12 9.97291E-07-1.68830E-01 2.37198E-08-2.63893E-14 1.00000E+01 1.25000E+00



 n o d a l   p r i n t   o u t   f o r   t i m e  s t e p     240                              ( at time 1.9977627E-02 )

 nodal point  x-rot      y-rot       z-rot       x-rot vel   y-rot vel   z-rot vel   x-rot acc   y-rot acc   z-rot acc
      293 -3.88966E-14 8.96391E-15 9.79596E-27 8.20822E-11 7.20955E-11 8.49951E-24 1.72547E-06-2.53073E-06-2.49876E-20
     4282 -2.04337E-15 1.55045E-15 1.60626E-29-1.41001E-11 5.82744E-12-5.29355E-26 4.29478E-07-6.08495E-08-2.62999E-21



 n o d a l   p r i n t   o u t   f o r   t i m e  s t e p     264                              ( at time 2.1983749E-02 )

 nodal point  x-disp     y-disp      z-disp      x-vel       y-vel       z-vel      x-accl      y-accl      z-accl      x-coor      y-coor      z-coor
      293  2.43246E-13-1.41441E-05-2.52229E-15 7.49297E-10-3.34550E-03-7.12014E-11-5.23216E-06-4.11233E-01 5.02158E-07 2.57457E-13-1.00000E+01 1.25000E+00
     4282 -7.63636E-14-3.50669E-06-8.95026E-15-2.14295E-10-1.20278E-03-4.24186E-11-2.26920E-06-2.70140E-01 1.69136E-07-6.09281E-14 1.00000E+01 1.25000E+00



 n o d a l   p r i n t   o u t   f o r   t i m e  s t e p     264                              ( at time 2.1983749E-02 )

 nodal point  x-rot      y-rot       z-rot       x-rot vel   y-rot vel   z-rot vel   x-rot acc   y-rot acc   z-rot acc
      293 -2.71471E-14 2.28023E-14 3.22467E-26-2.73035E-10 1.80491E-10 1.06220E-23 2.90635E-06-3.69391E-06-5.20888E-20
     4282  1.56216E-14 3.24482E-16-1.38313E-27-1.25827E-10-1.90240E-11 3.86796E-26-2.27789E-07 5.56021E-07 1.79668E-21



 n o d a l   p r i n t   o u t   f o r   t i m e  s t e p     288                              ( at time 2.3989870E-02 )

 nodal point  x-disp     y-disp      z-disp      x-vel       y-vel       z-vel      x-accl      y-accl      z-accl      x-coor      y-coor      z-coor
      293 -8.58773E-14-2.16747E-05-4.86914E-15 8.24202E-10-4.11348E-03 4.81568E-13 8.32521E-06-3.97484E-01-5.50126E-07-7.16665E-14-1.00000E+01 1.25000E+00
     4282 -2.67028E-13-6.46136E-06-1.36548E-14-4.28137E-10-1.72686E-03-1.03685E-11-1.79223E-06-2.90162E-01 4.04857E-07-2.51593E-13 9.99999E+00 1.25000E+00



 n o d a l   p r i n t   o u t   f o r   t i m e  s t e p     288                              ( at time 2.3989870E-02 )

 nodal point  x-rot      y-rot       z-rot       x-rot vel   y-rot vel   z-rot vel   x-rot acc   y-rot acc   z-rot acc
      293 -6.95452E-14 1.71127E-15 1.57593E-26 2.06312E-11 2.65080E-10-5.17588E-23 6.38086E-06-1.84787E-06-6.13571E-20
     4282 -5.52594E-15-4.67390E-15-1.17949E-26 4.77168E-11-1.74703E-11-9.19209E-24 1.21164E-06 7.61006E-07-1.95823E-20



 n o d a l   p r i n t   o u t   f o r   t i m e  s t e p     312                              ( at time 2.5995992E-02 )

 nodal point  x-disp     y-disp      z-disp      x-vel       y-vel       z-vel      x-accl      y-accl      z-accl      x-coor      y-coor      z-coor
      293  8.40670E-13-3.07707E-05-2.58252E-14 1.57808E-09-4.91254E-03 6.36060E-11 7.51581E-07-3.44244E-01 2.75095E-08 8.54881E-13-1.00000E+01 1.25000E+00
     4282 -5.31514E-13-1.05219E-05-2.33556E-14 4.10315E-10-2.30479E-03-7.36934E-11 1.48004E-05-2.90376E-01 2.32590E-07-5.16078E-13 9.99999E+00 1.25000E+00



 n o d a l   p r i n t   o u t   f o r   t i m e  s t e p     312                              ( at time 2.5995992E-02 )

 nodal point  x-rot      y-rot       z-rot       x-rot vel   y-rot vel   z-rot vel   x-rot acc   y-rot acc   z-rot acc
      293 -1.32285E-14-1.11688E-14-5.15259E-26 3.26763E-11 2.06394E-10-4.72864E-23 6.38431E-06 1.88423E-06-1.11231E-19
     4282 -4.93787E-14-5.17176E-15-5.29883E-26 3.26813E-11 2.24844E-10-2.93006E-23 3.17231E-06-2.60061E-06-1.01745E-21



 n o d a l   p r i n t   o u t   f o r   t i m e  s t e p     335                              ( at time 2.7918525E-02 )

 nodal point  x-disp     y-disp      z-disp      x-vel       y-vel       z-vel      x-accl      y-accl      z-accl      x-coor      y-coor      z-coor
      293  1.11623E-12-4.09296E-05 2.46928E-14 1.66265E-09-5.62268E-03-2.59356E-11-1.46847E-05-3.49032E-01 7.09079E-07 1.13045E-12-1.00000E+01 1.25000E+00
     4282 -4.82296E-13-1.54617E-05-4.36440E-14-3.38734E-10-2.79273E-03 3.87384E-11-9.07679E-06-2.52598E-01 1.30670E-07-4.66861E-13 9.99998E+00 1.25000E+00



 n o d a l   p r i n t   o u t   f o r   t i m e  s t e p     335                              ( at time 2.7918525E-02 )

 nodal point  x-rot      y-rot       z-rot       x-rot vel   y-rot vel   z-rot vel   x-rot acc   y-rot acc   z-rot acc
      293 -1.73742E-14-3.14489E-14-1.59345E-25 5.58755E-10-3.54264E-10-5.95911E-23 1.23291E-06 2.64210E-06-6.12207E-20
     4282  7.89045E-14 2.67045E-14-1.70053E-25 1.30238E-10 1.03190E-10-9.83140E-23-2.76081E-06-4.60302E-06-1.18133E-19



 n o d a l   p r i n t   o u t   f o r   t i m e  s t e p     359                              ( at time 2.9924647E-02 )

 nodal point  x-disp     y-disp      z-disp      x-vel       y-vel       z-vel      x-accl      y-accl      z-accl      x-coor      y-coor      z-coor
      293  1.05634E-12-5.28532E-05 2.58584E-15 1.86804E-09-6.20518E-03-6.52791E-11 2.02349E-06-2.48907E-01 1.02493E-06 1.07055E-12-1.00001E+01 1.25000E+00
     4282 -1.15982E-12-2.16117E-05-2.87544E-14-1.62420E-09-3.33008E-03-4.37186E-11 2.48600E-06-2.80883E-01-2.58658E-07-1.14438E-12 9.99998E+00 1.25000E+00



 n o d a l   p r i n t   o u t   f o r   t i m e  s t e p     359                              ( at time 2.9924647E-02 )

 nodal point  x-rot      y-rot       z-rot       x-rot vel   y-rot vel   z-rot vel   x-rot acc   y-rot acc   z-rot acc
      293  1.96307E-14-1.54401E-13-2.93311E-25-3.46902E-10-1.15632E-09-1.43325E-22 1.97376E-06 8.50547E-06 6.10396E-19
     4282  5.67970E-14 2.04758E-14-4.10382E-25-8.69838E-11 9.21952E-11-1.50320E-22-2.50114E-06-5.15326E-06-2.82583E-19



 n o d a l   p r i n t   o u t   f o r   t i m e  s t e p     383                              ( at time 3.1930768E-02 )

 nodal point  x-disp     y-disp      z-disp      x-vel       y-vel       z-vel      x-accl      y-accl      z-accl      x-coor      y-coor      z-coor
      293  1.52784E-12-6.57981E-05-7.65375E-15-1.12091E-09-6.62708E-03 1.51693E-10 3.48618E-05-1.59141E-01 1.13004E-06 1.54205E-12-1.00001E+01 1.25000E+00
     4282 -1.74766E-12-2.89036E-05-8.95681E-14 2.75004E-10-3.90629E-03-1.40570E-10 8.67209E-06-2.52855E-01 2.10637E-07-1.73223E-12 9.99997E+00 1.25000E+00



 n o d a l   p r i n t   o u t   f o r   t i m e  s t e p     383                              ( at time 3.1930768E-02 )

 nodal point  x-rot      y-rot       z-rot       x-rot vel   y-rot vel   z-rot vel   x-rot acc   y-rot acc   z-rot acc
      293  9.68703E-14-8.55083E-14-3.13134E-25 9.98467E-10-3.44996E-10 5.09640E-23-2.95248E-06 4.69868E-07 3.14797E-19
     4282  1.30401E-14 5.27202E-15-8.80802E-25 4.28708E-10-1.37769E-10-2.98600E-22-1.10687E-06-1.27454E-06-3.65021E-19



 n o d a l   p r i n t   o u t   f o r   t i m e  s t e p     407                              ( at time 3.3936890E-02 )

 nodal point  x-disp     y-disp      z-disp      x-vel       y-vel       z-vel      x-accl      y-accl      z-accl      x-coor      y-coor      z-coor
      293  2.32210E-12-7.95537E-05 1.38054E-14 4.93171E-10-7.10921E-03 1.86825E-10 2.87913E-05-3.06379E-01-6.06496E-07 2.33631E-12-1.00001E+01 1.25000E+00
     4282 -2.23492E-12-3.72324E-05-1.23433E-13 4.58641E-10-4.36644E-03-8.75119E-11 7.86270E-06-2.11286E-01 1.14628E-06-2.21949E-12 9.99996E+00 1.25000E+00



 n o d a l   p r i n t   o u t   f o r   t i m e  s t e p     407                              ( at time 3.3936890E-02 )

 nodal point  x-rot      y-rot       z-rot       x-rot vel   y-rot vel   z-rot vel   x-rot acc   y-rot acc   z-rot acc
      293 -4.59741E-14-5.94784E-14-1.29540E-25-4.34476E-10 3.97766E-10 1.46838E-22 1.74104E-06-2.80426E-07-3.69251E-19
     4282 -8.35823E-15 4.90887E-15-1.66664E-24 2.94519E-10 3.92098E-10-3.60362E-22 7.72052E-06-2.46559E-06-1.20999E-19



 n o d a l   p r i n t   o u t   f o r   t i m e  s t e p     431                              ( at time 3.5943011E-02 )

 nodal point  x-disp     y-disp      z-disp      x-vel       y-vel       z-vel      x-accl      y-accl      z-accl      x-coor      y-coor      z-coor
      293  2.95194E-12-9.44464E-05 2.96095E-14 4.58153E-09-7.72300E-03 2.89086E-10-3.23758E-06-3.22914E-01-1.05932E-06 2.96616E-12-1.00001E+01 1.25000E+00
     4282 -2.77228E-12-4.64278E-05-1.48445E-13 4.30393E-11-4.78795E-03 1.93539E-11-1.57254E-05-2.40354E-01-1.15179E-06-2.75684E-12 9.99995E+00 1.25000E+00



 n o d a l   p r i n t   o u t   f o r   t i m e  s t e p     431                              ( at time 3.5943011E-02 )

 nodal point  x-rot      y-rot       z-rot       x-rot vel   y-rot vel   z-rot vel   x-rot acc   y-rot acc   z-rot acc
      293  1.60043E-13-3.34400E-14-3.30721E-26-6.48754E-10 1.09389E-09 2.42478E-22-8.22925E-06-6.43585E-09 6.63521E-19
     4282 -2.94133E-14 3.54062E-14-2.62759E-24-7.05145E-10-3.45474E-10-4.96348E-22 1.15044E-05 8.56138E-06 5.85046E-20



 n o d a l   p r i n t   o u t   f o r   t i m e  s t e p     455                              ( at time 3.7949133E-02 )

 nodal point  x-disp     y-disp      z-disp      x-vel       y-vel       z-vel      x-accl      y-accl      z-accl      x-coor      y-coor      z-coor
      293  4.34606E-12-1.10671E-04 1.14530E-13-2.03910E-09-8.41652E-03 4.10546E-10-3.57290E-05-3.12995E-01-3.77196E-08 4.36027E-12-1.00001E+01 1.25000E+00
     4282 -3.96483E-12-5.66026E-05-1.55972E-13-3.43641E-09-5.35544E-03 9.01121E-12 2.68257E-05-3.13561E-01 3.10946E-06-3.94940E-12 9.99994E+00 1.25000E+00



 n o d a l   p r i n t   o u t   f o r   t i m e  s t e p     455                              ( at time 3.7949133E-02 )

 nodal point  x-rot      y-rot       z-rot       x-rot vel   y-rot vel   z-rot vel   x-rot acc   y-rot acc   z-rot acc
      293  1.63449E-13-8.69086E-14-4.27023E-26-1.36190E-09 4.26242E-10 4.04978E-22 1.42610E-06-1.83090E-06 2.21616E-19
     4282  1.62544E-14-2.59496E-14-3.24548E-24 2.16003E-09-2.49836E-10-1.78610E-22 9.70725E-06 1.67592E-05-1.31851E-18



 n o d a l   p r i n t   o u t   f o r   t i m e  s t e p     479                              ( at time 3.9955254E-02 )

 nodal point  x-disp     y-disp      z-disp      x-vel       y-vel       z-vel      x-accl      y-accl      z-accl      x-coor      y-coor      z-coor
      293  4.99853E-12-1.28116E-04 1.39645E-13 1.91395E-09-8.91125E-03-4.94085E-10-5.92015E-05-2.55614E-01 3.14200E-06 5.01274E-12-1.00001E+01 1.25000E+00
     4282 -3.37759E-12-6.80109E-05-9.17782E-14 6.61534E-09-5.98762E-03 8.09847E-11-7.20362E-05-3.02453E-01-5.56392E-06-3.36216E-12 9.99993E+00 1.25000E+00



 n o d a l   p r i n t   o u t   f o r   t i m e  s t e p     479                              ( at time 3.9955254E-02 )

 nodal point  x-rot      y-rot       z-rot       x-rot vel   y-rot vel   z-rot vel   x-rot acc   y-rot acc   z-rot acc
      293  1.64962E-13-1.07941E-13 3.05255E-25 1.14808E-09-8.06508E-10-3.50619E-23-2.25994E-05 6.26938E-06 2.89060E-18
     4282  4.85573E-14 4.68852E-14-3.20602E-24-1.76666E-10 1.04873E-09 1.79976E-23-1.11802E-05-2.61107E-06-3.63575E-19



 n o d a l   p r i n t   o u t   f o r   t i m e  s t e p     503                              ( at time 4.1961376E-02 )

 nodal point  x-disp     y-disp      z-disp      x-vel       y-vel       z-vel      x-accl      y-accl      z-accl      x-coor      y-coor      z-coor
      293  5.17999E-12-1.46473E-04 2.66003E-14 2.04926E-09-9.35031E-03 2.16613E-10-4.67137E-05-1.81253E-01-1.80203E-06 5.19420E-12-1.00001E+01 1.25000E+00
     4282 -5.66484E-12-8.06144E-05-3.26554E-13-5.69806E-09-6.53903E-03-5.00707E-10 7.16893E-05-2.55380E-01 1.64613E-06-5.64941E-12 9.99992E+00 1.25000E+00



 n o d a l   p r i n t   o u t   f o r   t i m e  s t e p     503                              ( at time 4.1961376E-02 )

 nodal point  x-rot      y-rot       z-rot       x-rot vel   y-rot vel   z-rot vel   x-rot acc   y-rot acc   z-rot acc
      293  2.25867E-13 8.65561E-14 6.76979E-25 3.80622E-09-1.05073E-09-1.66151E-22-3.55390E-06 9.96956E-06 1.97401E-18
     4282 -1.10504E-13 1.44695E-13-2.86330E-24-3.08154E-10-2.59839E-10 2.98157E-22 1.30213E-05 2.25198E-06-1.09267E-18



 n o d a l   p r i n t   o u t   f o r   t i m e  s t e p     527                              ( at time 4.3967498E-02 )

 nodal point  x-disp     y-disp      z-disp      x-vel       y-vel       z-vel      x-accl      y-accl      z-accl      x-coor      y-coor      z-coor
      293  7.64699E-12-1.65556E-04 1.08101E-13-6.37654E-10-9.63395E-03 4.68209E-10-6.86830E-05-8.68005E-02-3.38107E-06 7.66120E-12-1.00002E+01 1.25000E+00
     4282 -6.39043E-12-9.41441E-05-5.56183E-13-1.46472E-09-6.89699E-03-1.56009E-11 3.42259E-05-1.37292E-01 6.64670E-07-6.37500E-12 9.99991E+00 1.25000E+00



 n o d a l   p r i n t   o u t   f o r   t i m e  s t e p     527                              ( at time 4.3967498E-02 )

 nodal point  x-rot      y-rot       z-rot       x-rot vel   y-rot vel   z-rot vel   x-rot acc   y-rot acc   z-rot acc
      293  2.76157E-13-8.19857E-14 2.68111E-24-1.99275E-09 5.29266E-10 1.45845E-21 1.82370E-05 2.27925E-06-2.99198E-18
     4282 -1.35813E-13 8.14867E-15-1.46432E-24 1.61861E-10-4.26494E-10 9.22257E-22 1.25092E-05 5.75518E-06-1.50797E-18



 n o d a l   p r i n t   o u t   f o r   t i m e  s t e p     551                              ( at time 4.5973619E-02 )

 nodal point  x-disp     y-disp      z-disp      x-vel       y-vel       z-vel      x-accl      y-accl      z-accl      x-coor      y-coor      z-coor
      293  8.45618E-12-1.85003E-04-2.96422E-14 2.89012E-09-9.73287E-03-8.27186E-10 3.00633E-05-4.57257E-02 7.66326E-07 8.47039E-12-1.00002E+01 1.25000E+00
     4282 -7.33658E-12-1.08151E-04-7.15042E-13 1.24152E-09-7.02794E-03 6.35964E-10 1.45691E-05-3.58687E-02-1.00940E-05-7.32114E-12 9.99989E+00 1.25000E+00



 n o d a l   p r i n t   o u t   f o r   t i m e  s t e p     551                              ( at time 4.5973619E-02 )

 nodal point  x-rot      y-rot       z-rot       x-rot vel   y-rot vel   z-rot vel   x-rot acc   y-rot acc   z-rot acc
      293  1.37259E-13-1.28439E-13 7.38499E-24 3.64012E-10 1.53052E-10 4.52481E-21 1.12394E-05 1.35295E-06 4.57759E-18
     4282 -4.64785E-13-5.22922E-14 4.27321E-25 1.85968E-09-1.23907E-09 1.51628E-21 4.57097E-06-3.11740E-06 3.08801E-19



 n o d a l   p r i n t   o u t   f o r   t i m e  s t e p     575                              ( at time 4.7979741E-02 )

 nodal point  x-disp     y-disp      z-disp      x-vel       y-vel       z-vel      x-accl      y-accl      z-accl      x-coor      y-coor      z-coor
      293  7.79581E-12-2.04532E-04-6.29399E-14-1.53652E-09-9.72712E-03 5.19118E-11 5.68889E-05-9.62764E-03-1.75179E-06 7.81002E-12-1.00002E+01 1.25000E+00
     4282 -7.62672E-12-1.22260E-04-1.02656E-12 8.16176E-09-7.00835E-03-4.03351E-10-5.92015E-05 4.70245E-02 2.47489E-07-7.61128E-12 9.99988E+00 1.25000E+00



 n o d a l   p r i n t   o u t   f o r   t i m e  s t e p     575                              ( at time 4.7979741E-02 )

 nodal point  x-rot      y-rot       z-rot       x-rot vel   y-rot vel   z-rot vel   x-rot acc   y-rot acc   z-rot acc
      293  6.38969E-13-1.71729E-13 1.86317E-23-9.26003E-10-5.96811E-10 7.42263E-21 3.13534E-06 1.52153E-05 8.51233E-19
     4282 -8.01348E-13-8.99176E-15 1.55447E-24-5.16371E-10-8.32172E-10 5.81145E-22 1.52384E-05-1.38870E-07 6.76543E-19



 n o d a l   p r i n t   o u t   f o r   t i m e  s t e p     599                              ( at time 4.9985862E-02 )

 nodal point  x-disp     y-disp      z-disp      x-vel       y-vel       z-vel      x-accl      y-accl      z-accl      x-coor      y-coor      z-coor
      293  9.15275E-12-2.24097E-04-2.79082E-13-7.72967E-10-9.76423E-03 2.07394E-10-4.07010E-05 1.19661E-02-4.70406E-06 9.16697E-12-1.00002E+01 1.25000E+00
     4282 -8.74899E-12-1.36145E-04-8.03258E-13 2.90392E-09-6.83140E-03 2.60531E-10-5.08763E-06 9.73272E-02 2.20496E-06-8.73355E-12 9.99986E+00 1.25000E+00



 n o d a l   p r i n t   o u t   f o r   t i m e  s t e p     599                              ( at time 4.9985862E-02 )

 nodal point  x-rot      y-rot       z-rot       x-rot vel   y-rot vel   z-rot vel   x-rot acc   y-rot acc   z-rot acc
      293  4.00789E-13-1.26190E-13 3.62012E-23 2.81099E-09 1.86502E-09 1.05844E-20 3.11499E-06 7.60739E-06 5.94376E-18
     4282 -4.27588E-13-8.29429E-14 7.80648E-24 2.82676E-09 1.47933E-10 5.59452E-21-2.33244E-05 9.37878E-06-4.46443E-18



 n o d a l   p r i n t   o u t   f o r   t i m e  s t e p     623                              ( at time 5.1991984E-02 )

 nodal point  x-disp     y-disp      z-disp      x-vel       y-vel       z-vel      x-accl      y-accl      z-accl      x-coor      y-coor      z-coor
      293  8.72668E-12-2.43743E-04 2.37838E-13 2.49385E-09-9.84129E-03-3.50374E-10 6.77580E-05-1.03677E-02-4.07670E-07 8.74089E-12-1.00002E+01 1.25000E+00
     4282 -9.98921E-12-1.49546E-04-1.09913E-12-3.35910E-09-6.52815E-03 5.69551E-10 7.86270E-05 1.72580E-01 2.10406E-06-9.97378E-12 9.99985E+00 1.25000E+00



 n o d a l   p r i n t   o u t   f o r   t i m e  s t e p     623                              ( at time 5.1991984E-02 )

 nodal point  x-rot      y-rot       z-rot       x-rot vel   y-rot vel   z-rot vel   x-rot acc   y-rot acc   z-rot acc
      293  6.74526E-13-3.86252E-13 6.05094E-23 5.10048E-10-6.73077E-10 1.34323E-20-3.18481E-05 4.41002E-05-2.20627E-18
     4282 -7.36108E-13 4.28573E-14 2.17631E-23-3.93301E-09 2.19543E-09 1.06990E-20 4.93116E-05-3.17584E-05 1.22354E-17



 n o d a l   p r i n t   o u t   f o r   t i m e  s t e p     647                              ( at time 5.3998105E-02 )

 nodal point  x-disp     y-disp      z-disp      x-vel       y-vel       z-vel      x-accl      y-accl      z-accl      x-coor      y-coor      z-coor
      293  1.19555E-11-2.63527E-04 3.05276E-13 1.62399E-09-9.90355E-03 1.04977E-09-1.11465E-04-2.37250E-02-3.02466E-06 1.19697E-11-1.00003E+01 1.25000E+00
     4282 -1.14298E-11-1.62223E-04-1.08473E-12-5.60141E-09-6.12666E-03-7.38675E-11-5.13388E-05 1.82873E-01 3.07762E-06-1.14144E-11 9.99984E+00 1.25000E+00



 n o d a l   p r i n t   o u t   f o r   t i m e  s t e p     647                              ( at time 5.3998105E-02 )

 nodal point  x-rot      y-rot       z-rot       x-rot vel   y-rot vel   z-rot vel   x-rot acc   y-rot acc   z-rot acc
      293  6.02953E-13-7.28985E-14 9.21233E-23-2.37788E-10 2.29052E-09 2.04991E-20 2.71225E-07-4.45061E-05-7.20695E-18
     4282 -2.54030E-13 3.60072E-13 4.82647E-23 1.95618E-09-1.55891E-09 1.50296E-20-1.22221E-05-2.26409E-05-2.06304E-18



 n o d a l   p r i n t   o u t   f o r   t i m e  s t e p     670                              ( at time 5.5920639E-02 )

 nodal point  x-disp     y-disp      z-disp      x-vel       y-vel       z-vel      x-accl      y-accl      z-accl      x-coor      y-coor      z-coor
      293  1.07458E-11-2.82737E-04 2.96354E-13 3.57635E-09-1.01208E-02-3.80447E-10 9.64337E-05-1.59341E-01-7.98978E-06 1.07600E-11-1.00003E+01 1.25000E+00
     4282 -1.32359E-11-1.73672E-04-7.15707E-13 2.17011E-10-5.80293E-03 9.80204E-10-3.65384E-05 1.38302E-01-2.89439E-06-1.32205E-11 9.99983E+00 1.25000E+00



 n o d a l   p r i n t   o u t   f o r   t i m e  s t e p     670                              ( at time 5.5920639E-02 )

 nodal point  x-rot      y-rot       z-rot       x-rot vel   y-rot vel   z-rot vel   x-rot acc   y-rot acc   z-rot acc
      293  6.16543E-13-3.54393E-13 1.32112E-22-1.95163E-09-7.09350E-10 2.24361E-20 5.07621E-05 1.00240E-05 1.39583E-17
     4282 -2.60548E-13-5.97985E-14 8.18546E-23 3.81353E-10-2.23709E-09 2.22727E-20-2.07803E-05 5.50180E-05 2.18156E-18



 n o d a l   p r i n t   o u t   f o r   t i m e  s t e p     694                              ( at time 5.7926760E-02 )

 nodal point  x-disp     y-disp      z-disp      x-vel       y-vel       z-vel      x-accl      y-accl      z-accl      x-coor      y-coor      z-coor
      293  1.45127E-11-3.03313E-04 4.41833E-13 5.78001E-09-1.03703E-02 3.37244E-10-7.03018E-05-1.31568E-01 8.97746E-06 1.45269E-11-1.00003E+01 1.25000E+00
     4282 -1.54101E-11-1.85108E-04-1.29546E-12-2.45057E-09-5.64587E-03-5.10027E-10-4.62512E-05 5.11279E-02-3.80419E-06-1.53946E-11 9.99981E+00 1.25000E+00



 n o d a l   p r i n t   o u t   f o r   t i m e  s t e p     694                              ( at time 5.7926760E-02 )

 nodal point  x-rot      y-rot       z-rot       x-rot vel   y-rot vel   z-rot vel   x-rot acc   y-rot acc   z-rot acc
      293  5.33304E-13-4.49859E-13 1.84193E-22-5.01536E-09-4.39741E-09 2.58390E-20 3.88208E-05 2.98185E-05 9.69061E-18
     4282  2.61321E-13 2.48182E-13 1.32369E-22 3.25441E-09 3.71655E-09 2.73170E-20-5.09892E-06-3.50519E-05-7.70161E-18



 n o d a l   p r i n t   o u t   f o r   t i m e  s t e p     718                              ( at time 5.9932882E-02 )

 nodal point  x-disp     y-disp      z-disp      x-vel       y-vel       z-vel      x-accl      y-accl      z-accl      x-coor      y-coor      z-coor
      293  1.82505E-11-3.24359E-04 1.20485E-12-4.63903E-09-1.05724E-02-8.61931E-10-2.72882E-05-7.70581E-02 5.72776E-06 1.82647E-11-1.00003E+01 1.25000E+00
     4282 -1.70122E-11-1.96345E-04-1.18956E-12 1.12933E-08-5.58087E-03-1.37694E-10-5.45764E-05-1.09819E-02-2.08141E-06-1.69968E-11 9.99980E+00 1.25000E+00



 n o d a l   p r i n t   o u t   f o r   t i m e  s t e p     718                              ( at time 5.9932882E-02 )

 nodal point  x-rot      y-rot       z-rot       x-rot vel   y-rot vel   z-rot vel   x-rot acc   y-rot acc   z-rot acc
      293  1.44064E-12-3.66172E-13 2.39951E-22 4.29615E-09-5.35941E-11 2.57319E-20-6.95053E-05 7.46050E-06 1.33642E-17
     4282  7.78987E-13 1.25723E-13 1.91851E-22 1.31923E-09-3.24027E-10 3.05059E-20-6.80937E-06 1.12838E-06 9.45829E-18



 n o d a l   p r i n t   o u t   f o r   t i m e  s t e p     742                              ( at time 6.1939003E-02 )

 nodal point  x-disp     y-disp      z-disp      x-vel       y-vel       z-vel      x-accl      y-accl      z-accl      x-coor      y-coor      z-coor
      293  1.93465E-11-3.45692E-04 1.09461E-12 1.13665E-08-1.06541E-02 6.81964E-10 8.14020E-05-2.28666E-02-2.66690E-06 1.93607E-11-1.00003E+01 1.25000E+00
     4282 -1.90716E-11-2.07548E-04-1.27249E-12 3.15522E-09-5.58923E-03 1.94342E-09-6.29016E-05 1.04121E-02-1.14079E-05-1.90562E-11 9.99979E+00 1.25000E+00



 n o d a l   p r i n t   o u t   f o r   t i m e  s t e p     742                              ( at time 6.1939003E-02 )

 nodal point  x-rot      y-rot       z-rot       x-rot vel   y-rot vel   z-rot vel   x-rot acc   y-rot acc   z-rot acc
      293  1.02769E-12-2.95672E-13 2.85906E-22 1.92754E-09-3.41967E-09 1.53744E-20 1.42473E-05 2.13711E-05 4.74670E-18
     4282  1.25686E-12-1.16493E-13 2.58286E-22 3.04406E-09-4.63858E-10 3.42606E-20-8.44445E-06 1.04764E-05 1.45208E-18



 n o d a l   p r i n t   o u t   f o r   t i m e  s t e p     766                              ( at time 6.3945125E-02 )

 nodal point  x-disp     y-disp      z-disp      x-vel       y-vel       z-vel      x-accl      y-accl      z-accl      x-coor      y-coor      z-coor
      293  2.39051E-11-3.67149E-04 1.16600E-12 1.31471E-09-1.07487E-02-2.88792E-10 3.42259E-05-4.36685E-02 7.13506E-07 2.39193E-11-1.00004E+01 1.25000E+00
     4282 -2.43529E-11-2.18722E-04-1.56538E-12 2.98125E-09-5.57003E-03-8.16388E-10-3.00633E-05 3.61869E-03 1.24605E-05-2.43375E-11 9.99978E+00 1.25000E+00



 n o d a l   p r i n t   o u t   f o r   t i m e  s t e p     766                              ( at time 6.3945125E-02 )

 nodal point  x-rot      y-rot       z-rot       x-rot vel   y-rot vel   z-rot vel   x-rot acc   y-rot acc   z-rot acc
      293  1.24759E-12-4.45860E-13 3.19398E-22 8.95710E-10-2.89920E-10 1.07227E-20-1.30000E-05 1.10383E-05-1.53668E-18
     4282  6.62797E-13 2.50683E-14 3.20337E-22-9.40522E-09-1.97851E-09 3.01966E-20 1.06049E-04 1.96643E-05-2.80515E-17



 n o d a l   p r i n t   o u t   f o r   t i m e  s t e p     790                              ( at time 6.5951246E-02 )

 nodal point  x-disp     y-disp      z-disp      x-vel       y-vel       z-vel      x-accl      y-accl      z-accl      x-coor      y-coor      z-coor
      293  3.22948E-11-3.88863E-04 1.10411E-12 1.42660E-08-1.09221E-02-2.58714E-10-1.86392E-04-1.46746E-01 6.44913E-06 3.23090E-11-1.00004E+01 1.25000E+00
     4282 -2.83788E-11-2.29853E-04-1.05679E-12-1.56138E-09-5.51956E-03-3.79661E-10 3.70009E-05 5.76696E-02-1.04555E-05-2.83633E-11 9.99977E+00 1.25000E+00



 n o d a l   p r i n t   o u t   f o r   t i m e  s t e p     790                              ( at time 6.5951246E-02 )

 nodal point  x-rot      y-rot       z-rot       x-rot vel   y-rot vel   z-rot vel   x-rot acc   y-rot acc   z-rot acc
      293  2.37282E-12-3.59827E-13 3.27935E-22 1.00125E-08-1.99926E-10-5.62759E-21-1.37333E-04-9.06298E-06-6.75675E-18
     4282  1.01513E-12 2.71979E-13 3.79007E-22-1.54360E-10-1.27327E-10 2.64433E-20-2.84081E-05-3.71317E-05-1.51478E-17



 n o d a l   p r i n t   o u t   f o r   t i m e  s t e p     814                              ( at time 6.7957368E-02 )

 nodal point  x-disp     y-disp      z-disp      x-vel       y-vel       z-vel      x-accl      y-accl      z-accl      x-coor      y-coor      z-coor
      293  3.24536E-11-4.11111E-04 1.11532E-12-1.40336E-08-1.12584E-02-1.55081E-10 1.07765E-04-1.62456E-01 9.49097E-06 3.24678E-11-1.00004E+01 1.25000E+00
     4282 -3.14755E-11-2.40881E-04-1.79584E-12 5.12691E-09-5.50233E-03 1.07485E-10 5.73514E-05-3.40927E-02 2.38143E-05-3.14601E-11 9.99976E+00 1.25000E+00



 n o d a l   p r i n t   o u t   f o r   t i m e  s t e p     814                              ( at time 6.7957368E-02 )

 nodal point  x-rot      y-rot       z-rot       x-rot vel   y-rot vel   z-rot vel   x-rot acc   y-rot acc   z-rot acc
      293  1.66630E-12-6.03350E-13 2.98958E-22 6.87673E-09-3.21609E-09-2.76701E-20-2.83747E-05 1.90019E-05 3.16101E-18
     4282  3.30607E-13 4.27340E-14 4.24164E-22-2.77532E-09-2.11462E-09 1.66255E-20 8.31733E-05 3.17750E-05 3.92085E-17



 n o d a l   p r i n t   o u t   f o r   t i m e  s t e p     838                              ( at time 6.9963489E-02 )

 nodal point  x-disp     y-disp      z-disp      x-vel       y-vel       z-vel      x-accl      y-accl      z-accl      x-coor      y-coor      z-coor
      293  3.73920E-11-4.33974E-04 1.51995E-12 2.74515E-09-1.15213E-02 4.24427E-10-7.49269E-05-1.27180E-01-9.28589E-06 3.74062E-11-1.00004E+01 1.25000E+00
     4282 -3.52089E-11-2.52010E-04-1.33179E-12-1.98478E-08-5.62445E-03-9.75907E-10-8.88022E-05-6.76377E-02-9.08784E-06-3.51935E-11 9.99975E+00 1.25000E+00



 n o d a l   p r i n t   o u t   f o r   t i m e  s t e p     838                              ( at time 6.9963489E-02 )

 nodal point  x-rot      y-rot       z-rot       x-rot vel   y-rot vel   z-rot vel   x-rot acc   y-rot acc   z-rot acc
      293  6.86819E-13-2.94852E-13 2.18423E-22-7.49318E-09 4.65976E-09-5.51480E-20 6.14406E-05-4.67137E-05-5.63817E-18
     4282  9.70383E-13-1.46568E-13 4.62277E-22 3.89131E-09-2.57603E-09 1.84332E-20-7.30689E-05 5.70416E-05 2.64806E-17



 n o d a l   p r i n t   o u t   f o r   t i m e  s t e p     862                              ( at time 7.1969611E-02 )

 nodal point  x-disp     y-disp      z-disp      x-vel       y-vel       z-vel      x-accl      y-accl      z-accl      x-coor      y-coor      z-coor
      293  4.14707E-11-4.57462E-04 1.72345E-12-9.23964E-09-1.19865E-02-1.66313E-10 1.32278E-04-6.96402E-01 8.63853E-06 4.14849E-11-1.00005E+01 1.25000E+00
     4282 -4.02834E-11-2.63476E-04-1.27926E-12 1.01914E-08-5.86124E-03-2.32047E-09-1.25341E-04-1.98488E-01 1.05340E-05-4.02680E-11 9.99974E+00 1.25000E+00



 n o d a l   p r i n t   o u t   f o r   t i m e  s t e p     862                              ( at time 7.1969611E-02 )

 nodal point  x-rot      y-rot       z-rot       x-rot vel   y-rot vel   z-rot vel   x-rot acc   y-rot acc   z-rot acc
      293  7.87991E-13-6.11965E-13 9.55884E-23-4.78237E-09-1.23541E-09-6.94000E-20 7.90769E-05 2.15242E-05-1.58886E-17
     4282  1.48576E-13 6.62554E-14 4.96283E-22-5.00117E-09-6.71723E-09 1.19553E-20-1.09132E-05 4.37798E-05-6.33490E-17



 n o d a l   p r i n t   o u t   f o r   t i m e  s t e p     886                              ( at time 7.3975733E-02 )

 nodal point  x-disp     y-disp      z-disp      x-vel       y-vel       z-vel      x-accl      y-accl      z-accl      x-coor      y-coor      z-coor
      293  4.51552E-11-4.83317E-04 1.58418E-12-1.56186E-08-1.36510E-02 2.53675E-10-1.26728E-04-7.86862E-01 4.18281E-06 4.51694E-11-1.00005E+01 1.25000E+00
     4282 -4.60527E-11-2.75617E-04-1.85142E-12 4.19905E-09-6.24253E-03-1.09354E-09 1.70204E-04-2.12918E-01 1.14407E-05-4.60373E-11 9.99972E+00 1.25000E+00



 n o d a l   p r i n t   o u t   f o r   t i m e  s t e p     886                              ( at time 7.3975733E-02 )

 nodal point  x-rot      y-rot       z-rot       x-rot vel   y-rot vel   z-rot vel   x-rot acc   y-rot acc   z-rot acc
      293  5.59860E-13 1.22849E-13-4.93728E-23-5.17702E-09 3.67498E-09-7.22223E-20 2.00353E-04-4.79155E-05-1.53634E-16
     4282  2.19120E-13 1.37103E-13 5.13346E-22 1.31011E-09-2.15649E-09 1.43908E-21-3.04955E-05-2.32043E-05-1.89671E-17



 n o d a l   p r i n t   o u t   f o r   t i m e  s t e p     910                              ( at time 7.5981854E-02 )

 nodal point  x-disp     y-disp      z-disp      x-vel       y-vel       z-vel      x-accl      y-accl      z-accl      x-coor      y-coor      z-coor
      293  5.16415E-11-5.12433E-04 1.13385E-12 3.94362E-09-1.54440E-02-1.66403E-09 1.04528E-04-1.03120E+00 1.20691E-05 5.16557E-11-1.00005E+01 1.25000E+00
     4282 -4.93498E-11-2.88739E-04-3.10322E-12-6.31663E-09-6.96195E-03 1.18558E-09 1.76679E-04-7.57971E-01 2.14148E-05-4.93344E-11 9.99971E+00 1.25000E+00



 n o d a l   p r i n t   o u t   f o r   t i m e  s t e p     910                              ( at time 7.5981854E-02 )

 nodal point  x-rot      y-rot       z-rot       x-rot vel   y-rot vel   z-rot vel   x-rot acc   y-rot acc   z-rot acc
      293  1.89002E-12 4.50534E-13-2.15282E-22 2.30662E-09 6.54529E-09-7.85078E-20-7.24390E-05-8.11718E-05-8.95964E-17
     4282 -1.24003E-12 8.12609E-13 5.23687E-22-1.06382E-09 1.23099E-09 1.17439E-20 2.22345E-05-5.41910E-05-4.92115E-18



 n o d a l   p r i n t   o u t   f o r   t i m e  s t e p     934                              ( at time 7.7987976E-02 )

 nodal point  x-disp     y-disp      z-disp      x-vel       y-vel       z-vel      x-accl      y-accl      z-accl      x-coor      y-coor      z-coor
      293  6.37733E-11-5.46236E-04 7.59120E-13-2.86064E-09-1.82901E-02-9.31933E-10 2.30331E-04-1.66359E+00-3.04964E-05 6.37875E-11-1.00005E+01 1.25000E+00
     4282 -5.37101E-11-3.04408E-04-2.35222E-12-3.45574E-09-8.66096E-03 1.92848E-09-1.91480E-04-9.67500E-01-1.99468E-05-5.36947E-11 9.99970E+00 1.25000E+00



 n o d a l   p r i n t   o u t   f o r   t i m e  s t e p     934                              ( at time 7.7987976E-02 )

 nodal point  x-rot      y-rot       z-rot       x-rot vel   y-rot vel   z-rot vel   x-rot acc   y-rot acc   z-rot acc
      293  1.13291E-12-7.26224E-13-3.85641E-22-2.73997E-09-3.36953E-09-8.03586E-20 5.91701E-05 8.25824E-05 1.26425E-16
     4282 -1.21481E-12-1.08619E-13 5.46257E-22 7.25643E-10 1.59156E-09 1.10370E-20-4.60712E-05 9.98547E-05-3.82132E-17



 n o d a l   p r i n t   o u t   f o r   t i m e  s t e p     958                              ( at time 7.9994097E-02 )

 nodal point  x-disp     y-disp      z-disp      x-vel       y-vel       z-vel      x-accl      y-accl      z-accl      x-coor      y-coor      z-coor
      293  7.70685E-11-5.86121E-04-1.47418E-13-1.51547E-08-2.14648E-02-2.55335E-10 1.48004E-05-1.79659E+00 1.28751E-05 7.70827E-11-1.00006E+01 1.25000E+00
     4282 -6.40456E-11-3.23864E-04-2.82466E-12-1.38554E-08-1.06141E-02-7.82935E-11-1.05915E-04-1.07153E+00-9.33589E-06-6.40302E-11 9.99968E+00 1.25000E+00



 n o d a l   p r i n t   o u t   f o r   t i m e  s t e p     958                              ( at time 7.9994097E-02 )

 nodal point  x-rot      y-rot       z-rot       x-rot vel   y-rot vel   z-rot vel   x-rot acc   y-rot acc   z-rot acc
      293  8.43874E-14 3.74986E-13-5.21793E-22-5.09631E-09 5.86046E-10-6.91320E-20-1.54177E-05-8.30524E-05-2.96655E-17
     4282 -6.80874E-13 5.47099E-13 5.79775E-22-7.28522E-09-9.38758E-10 2.43064E-20-2.17602E-04 2.82845E-06 4.86998E-17



 n o d a l   p r i n t   o u t   f o r   t i m e  s t e p     981                              ( at time 8.1916630E-02 )

 nodal point  x-disp     y-disp      z-disp      x-vel       y-vel       z-vel      x-accl      y-accl      z-accl      x-coor      y-coor      z-coor
      293  8.84635E-11-6.30698E-04-1.35723E-12 1.07479E-08-2.46934E-02-2.93393E-09 6.10515E-05-1.60318E+00-3.13920E-06 8.84777E-11-1.00006E+01 1.25000E+00
     4282 -7.85130E-11-3.46462E-04-2.87291E-12-8.21100E-09-1.28391E-02 1.23985E-09-1.38753E-04-1.16585E+00 1.11396E-05-7.84976E-11 9.99965E+00 1.25000E+00



 n o d a l   p r i n t   o u t   f o r   t i m e  s t e p     981                              ( at time 8.1916630E-02 )

 nodal point  x-rot      y-rot       z-rot       x-rot vel   y-rot vel   z-rot vel   x-rot acc   y-rot acc   z-rot acc
      293  2.35527E-13 2.60749E-15-6.23494E-22-2.20217E-09-5.62706E-09-4.06305E-20-5.34804E-05 1.20457E-04 6.30412E-17
     4282 -2.03793E-12 5.04818E-13 6.40132E-22 1.14372E-08 4.64069E-09 4.37851E-20-2.49407E-05-3.83860E-05 4.49990E-17



 n o d a l   p r i n t   o u t   f o r   t i m e  s t e p    1005                              ( at time 8.3922752E-02 )

 nodal point  x-disp     y-disp      z-disp      x-vel       y-vel       z-vel      x-accl      y-accl      z-accl      x-coor      y-coor      z-coor
      293  1.08280E-10-6.83413E-04-1.07070E-12 1.01293E-08-2.77437E-02-9.87932E-10-8.69522E-05-1.51969E+00 9.87347E-07 1.08294E-10-1.00007E+01 1.25000E+00
     4282 -9.78872E-11-3.74551E-04-2.72270E-12-1.47446E-08-1.50795E-02 2.79539E-10 1.53554E-04-1.13010E+00-3.32121E-06-9.78718E-11 9.99963E+00 1.25000E+00



 n o d a l   p r i n t   o u t   f o r   t i m e  s t e p    1005                              ( at time 8.3922752E-02 )

 nodal point  x-rot      y-rot       z-rot       x-rot vel   y-rot vel   z-rot vel   x-rot acc   y-rot acc   z-rot acc
      293  1.18127E-12 1.65970E-13-7.00267E-22-4.99642E-09 2.66358E-09-3.31419E-20-1.23603E-04-2.48281E-05-4.44800E-17
     4282 -1.97016E-12 7.91043E-13 7.80719E-22 5.41988E-09 1.88453E-09 9.98179E-20 6.86558E-05-5.43283E-05 7.27088E-17



 n o d a l   p r i n t   o u t   f o r   t i m e  s t e p    1029                              ( at time 8.5928874E-02 )

 nodal point  x-disp     y-disp      z-disp      x-vel       y-vel       z-vel      x-accl      y-accl      z-accl      x-coor      y-coor      z-coor
      293  1.28019E-10-7.42393E-04-2.20231E-12 3.43309E-08-3.08561E-02-1.74809E-09-2.51606E-04-1.53598E+00 3.10663E-05 1.28033E-10-1.00007E+01 1.25000E+00
     4282 -1.11419E-10-4.07142E-04-2.18879E-12-2.78892E-08-1.73563E-02 2.34175E-09 4.00535E-04-1.14969E+00-5.07717E-05-1.11403E-10 9.99959E+00 1.25000E+00



 n o d a l   p r i n t   o u t   f o r   t i m e  s t e p    1029                              ( at time 8.5928874E-02 )

 nodal point  x-rot      y-rot       z-rot       x-rot vel   y-rot vel   z-rot vel   x-rot acc   y-rot acc   z-rot acc
      293  2.75152E-13-4.92140E-13-7.32072E-22-7.74965E-09-8.51939E-10-4.58597E-21 1.90130E-05 1.08845E-04-6.04442E-17
     4282 -8.05719E-13 9.34234E-13 1.05281E-21 1.41562E-08 6.19825E-09 1.65951E-19-2.23020E-04-6.55121E-05 5.47172E-18



 n o d a l   p r i n t   o u t   f o r   t i m e  s t e p    1053                              ( at time 8.7934995E-02 )

 nodal point  x-disp     y-disp      z-disp      x-vel       y-vel       z-vel      x-accl      y-accl      z-accl      x-coor      y-coor      z-coor
      293  1.59902E-10-8.07420E-04-1.73224E-12-1.10567E-08-3.37920E-02 2.46310E-09 1.66504E-05-1.39908E+00-1.87792E-05 1.59916E-10-1.00008E+01 1.25000E+00
     4282 -1.34490E-10-4.44038E-04-2.31715E-12-1.08786E-08-1.93152E-02-4.39226E-10-6.66017E-05-1.01018E+00-1.44420E-05-1.34474E-10 9.99956E+00 1.25000E+00



 n o d a l   p r i n t   o u t   f o r   t i m e  s t e p    1053                              ( at time 8.7934995E-02 )

 nodal point  x-rot      y-rot       z-rot       x-rot vel   y-rot vel   z-rot vel   x-rot acc   y-rot acc   z-rot acc
      293  4.31557E-13-3.21156E-13-7.52426E-22-1.56696E-08-5.49161E-09-2.58924E-20 6.21390E-05 8.91999E-05 3.12033E-17
     4282 -1.58355E-12 7.42238E-14 1.45818E-21 1.02338E-08 1.56305E-09 2.41785E-19-1.34559E-04 9.34901E-05-6.49197E-18



 n o d a l   p r i n t   o u t   f o r   t i m e  s t e p    1077                              ( at time 8.9941117E-02 )

 nodal point  x-disp     y-disp      z-disp      x-vel       y-vel       z-vel      x-accl      y-accl      z-accl      x-coor      y-coor      z-coor
      293  1.83797E-10-8.77772E-04-2.04607E-13-8.11848E-09-3.61591E-02 2.65546E-09-1.20253E-05-1.17867E+00-2.40638E-05 1.83811E-10-1.00009E+01 1.25000E+00
     4282 -1.57193E-10-4.84882E-04-3.11775E-12-1.45900E-08-2.13163E-02-3.56814E-09-4.03310E-04-1.03845E+00-1.43745E-06-1.57177E-10 9.99952E+00 1.25000E+00



 n o d a l   p r i n t   o u t   f o r   t i m e  s t e p    1077                              ( at time 8.9941117E-02 )

 nodal point  x-rot      y-rot       z-rot       x-rot vel   y-rot vel   z-rot vel   x-rot acc   y-rot acc   z-rot acc
      293  9.92606E-15 5.48525E-13-7.46729E-22-5.86857E-09 2.87582E-09 3.13332E-20 7.44214E-05-4.47421E-05-2.74763E-17
     4282 -3.76286E-12 4.61322E-13 2.01861E-21-1.99583E-08-3.77099E-09 3.01930E-19 2.73096E-04 4.62639E-06 9.72627E-17



 n o d a l   p r i n t   o u t   f o r   t i m e  s t e p    1101                              ( at time 9.1947238E-02 )

 nodal point  x-disp     y-disp      z-disp      x-vel       y-vel       z-vel      x-accl      y-accl      z-accl      x-coor      y-coor      z-coor
      293  2.12778E-10-9.52304E-04 2.97455E-13-1.78610E-08-3.79554E-02 9.79924E-10-2.65482E-04-1.03635E+00-8.51565E-06 2.12793E-10-1.00010E+01 1.25000E+00
     4282 -1.90657E-10-5.29607E-04-4.46579E-12 2.45345E-08-2.31185E-02-3.50153E-09-1.66504E-05-8.09344E-01-7.09870E-06-1.90641E-10 9.99947E+00 1.25000E+00



 n o d a l   p r i n t   o u t   f o r   t i m e  s t e p    1101                              ( at time 9.1947238E-02 )

 nodal point  x-rot      y-rot       z-rot       x-rot vel   y-rot vel   z-rot vel   x-rot acc   y-rot acc   z-rot acc
      293  2.77676E-12 7.62090E-13-7.22237E-22 2.28401E-09 1.01142E-08 5.87459E-20-9.67830E-05-1.16573E-04 1.27081E-16
     4282 -3.99460E-12 1.20335E-12 2.73971E-21-9.86147E-10 9.16633E-09 4.00328E-19 1.22068E-04-1.32009E-04 2.86215E-16



 n o d a l   p r i n t   o u t   f o r   t i m e  s t e p    1125                              ( at time 9.3953360E-02 )

 nodal point  x-disp     y-disp      z-disp      x-vel       y-vel       z-vel      x-accl      y-accl      z-accl      x-coor      y-coor      z-coor
      293  2.40958E-10-1.03054E-03 3.93906E-13 4.50785E-08-4.00147E-02-1.45128E-09-2.62707E-04-1.08487E+00-3.62688E-05 2.40972E-10-1.00010E+01 1.25000E+00
     4282 -2.16546E-10-5.77605E-04-4.75557E-12-1.29663E-08-2.46736E-02 3.19931E-09-9.25023E-06-7.41499E-01-4.59671E-05-2.16530E-10 9.99942E+00 1.25000E+00



 n o d a l   p r i n t   o u t   f o r   t i m e  s t e p    1125                              ( at time 9.3953360E-02 )

 nodal point  x-rot      y-rot       z-rot       x-rot vel   y-rot vel   z-rot vel   x-rot acc   y-rot acc   z-rot acc
      293  2.86836E-12 1.31596E-13-5.27178E-22 2.27156E-08 3.84900E-09 1.01283E-19-1.72278E-04-8.47504E-05-1.17781E-17
     4282 -4.26710E-12 2.68233E-13 3.68561E-21 4.33759E-09-2.82375E-09 5.32912E-19 2.69974E-05 1.27287E-05-1.42651E-17



 n o d a l   p r i n t   o u t   f o r   t i m e  s t e p    1149                              ( at time 9.5959481E-02 )

 nodal point  x-disp     y-disp      z-disp      x-vel       y-vel       z-vel      x-accl      y-accl      z-accl      x-coor      y-coor      z-coor
      293  2.68970E-10-1.11319E-03-1.39185E-12 7.19111E-09-4.23398E-02-1.71019E-10 2.93232E-04-1.29873E+00 1.24674E-05 2.68984E-10-1.00011E+01 1.25000E+00
     4282 -2.53875E-10-6.28708E-04-4.76761E-12-5.31146E-09-2.62341E-02 5.87334E-10 2.25706E-04-8.65911E-01-1.37426E-06-2.53859E-10 9.99937E+00 1.25000E+00



 n o d a l   p r i n t   o u t   f o r   t i m e  s t e p    1149                              ( at time 9.5959481E-02 )

 nodal point  x-rot      y-rot       z-rot       x-rot vel   y-rot vel   z-rot vel   x-rot acc   y-rot acc   z-rot acc
      293  1.88861E-13 1.88087E-12-2.36119E-22 6.63016E-09-3.87463E-10 1.98416E-19 2.39573E-04-1.61114E-04 1.45182E-16
     4282 -4.37170E-12 1.34638E-12 4.92204E-21 7.61837E-09 9.99610E-09 6.82246E-19 4.79310E-05-1.28968E-04 2.45995E-16



 n o d a l   p r i n t   o u t   f o r   t i m e  s t e p    1173                              ( at time 9.7965603E-02 )

 nodal point  x-disp     y-disp      z-disp      x-vel       y-vel       z-vel      x-accl      y-accl      z-accl      x-coor      y-coor      z-coor
      293  3.13624E-10-1.20089E-03-8.54480E-13 1.26809E-08-4.49503E-02 1.87685E-09 2.37731E-04-1.24581E+00 1.00589E-05 3.13639E-10-1.00012E+01 1.25000E+00
     4282 -2.84462E-10-6.83374E-04-4.01482E-12-9.48681E-09-2.82369E-02-1.09266E-09 2.76582E-04-1.05275E+00 4.03171E-05-2.84447E-10 9.99932E+00 1.25000E+00



 n o d a l   p r i n t   o u t   f o r   t i m e  s t e p    1173                              ( at time 9.7965603E-02 )

 nodal point  x-rot      y-rot       z-rot       x-rot vel   y-rot vel   z-rot vel   x-rot acc   y-rot acc   z-rot acc
      293  7.14987E-13 1.48452E-12 1.97601E-22 5.68846E-09 5.66677E-09 2.18356E-19-2.72134E-04-1.54145E-04 2.26459E-16
     4282 -1.43230E-12 1.42205E-12 6.42365E-21 1.86540E-08 3.90747E-09 8.05589E-19-2.99366E-04-9.66855E-05 2.14253E-16



 n o d a l   p r i n t   o u t   f o r   t i m e  s t e p    1197                              ( at time 9.9971724E-02 )

 nodal point  x-disp     y-disp      z-disp      x-vel       y-vel       z-vel      x-accl      y-accl      z-accl      x-coor      y-coor      z-coor
      293  3.57322E-10-1.29330E-03-6.85675E-13 4.62383E-08-4.69979E-02-1.23119E-09-9.25023E-05-9.57880E-01-2.11803E-05 3.57336E-10-1.00013E+01 1.25000E+00
     4282 -3.13628E-10-7.42265E-04-5.78252E-12 6.13208E-09-3.03712E-02-6.89222E-09-1.81305E-04-9.88280E-01 4.63131E-05-3.13613E-10 9.99926E+00 1.25000E+00



 n o d a l   p r i n t   o u t   f o r   t i m e  s t e p    1197                              ( at time 9.9971724E-02 )

 nodal point  x-rot      y-rot       z-rot       x-rot vel   y-rot vel   z-rot vel   x-rot acc   y-rot acc   z-rot acc
      293 -2.14174E-12 7.07687E-13 6.17315E-22-2.25360E-09 1.26357E-08 1.85501E-19 2.22193E-05-1.23778E-04 4.85089E-18
     4282 -2.75729E-12 7.59726E-13 8.09739E-21 2.58934E-09 2.75445E-09 8.66632E-19 5.26302E-05-1.27523E-05 1.64729E-16



 n o d a l   p r i n t   o u t   f o r   t i m e  s t e p    1221                              ( at time 1.0197785E-01 )

 nodal point  x-disp     y-disp      z-disp      x-vel       y-vel       z-vel      x-accl      y-accl      z-accl      x-coor      y-coor      z-coor
      293  4.05253E-10-1.38934E-03-2.53105E-12 5.04137E-08-4.86019E-02 4.02691E-11-2.09055E-04-6.21231E-01 4.96051E-06 4.05268E-10-1.00014E+01 1.25000E+00
     4282 -3.53122E-10-8.05092E-04-5.34536E-12-1.98665E-09-3.21206E-02 1.64224E-09 4.81012E-04-7.17492E-01-1.25799E-05-3.53107E-10 9.99920E+00 1.25000E+00



 n o d a l   p r i n t   o u t   f o r   t i m e  s t e p    1221                              ( at time 1.0197785E-01 )

 nodal point  x-rot      y-rot       z-rot       x-rot vel   y-rot vel   z-rot vel   x-rot acc   y-rot acc   z-rot acc
      293  4.94790E-13 4.11533E-12 9.25302E-22 2.57032E-08 1.86168E-08 7.81292E-20-2.14574E-04-3.30970E-04 3.94346E-16
     4282 -3.67315E-12 1.95919E-12 1.00143E-20-7.11784E-09 9.08678E-10 1.03156E-18 1.52549E-04-1.39720E-04 2.25466E-16



 n o d a l   p r i n t   o u t   f o r   t i m e  s t e p    1245                              ( at time 1.0398397E-01 )

 nodal point  x-disp     y-disp      z-disp      x-vel       y-vel       z-vel      x-accl      y-accl      z-accl      x-coor      y-coor      z-coor
      293  4.40258E-10-1.48799E-03-3.86234E-12 4.28362E-08-4.95685E-02-6.79775E-09 6.58616E-04-2.79638E-01 7.43142E-05 4.40273E-10-1.00015E+01 1.25000E+00
     4282 -3.96740E-10-8.70742E-04-6.18619E-12 1.69571E-08-3.31470E-02 7.20920E-09-2.47906E-04-2.60546E-01-6.18545E-05-3.96724E-10 9.99913E+00 1.25000E+00



 n o d a l   p r i n t   o u t   f o r   t i m e  s t e p    1245                              ( at time 1.0398397E-01 )

 nodal point  x-rot      y-rot       z-rot       x-rot vel   y-rot vel   z-rot vel   x-rot acc   y-rot acc   z-rot acc
      293 -2.00743E-12 1.25589E-12 1.21775E-21 1.32838E-08-2.27508E-09 1.16507E-19-7.57539E-05 7.74551E-05 2.23812E-16
     4282 -3.56987E-12 1.99687E-12 1.21377E-20 1.48993E-08-3.92539E-10 1.12244E-18-7.12459E-05-1.81483E-04 7.18101E-17



 n o d a l   p r i n t   o u t   f o r   t i m e  s t e p    1269                              ( at time 1.0599009E-01 )

 nodal point  x-disp     y-disp      z-disp      x-vel       y-vel       z-vel      x-accl      y-accl      z-accl      x-coor      y-coor      z-coor
      293  4.90096E-10-1.58790E-03-1.95818E-12-3.17788E-08-4.99321E-02 2.56382E-09 6.10515E-05 3.23240E-02-3.23076E-05 4.90110E-10-1.00016E+01 1.25000E+00
     4282 -4.43589E-10-9.37495E-04-6.14045E-12 8.74232E-10-3.33015E-02 2.02478E-10 6.95617E-04 6.56248E-02-2.52759E-06-4.43574E-10 9.99906E+00 1.25000E+00



 n o d a l   p r i n t   o u t   f o r   t i m e  s t e p    1269                              ( at time 1.0599009E-01 )

 nodal point  x-rot      y-rot       z-rot       x-rot vel   y-rot vel   z-rot vel   x-rot acc   y-rot acc   z-rot acc
      293 -1.61268E-12 8.09750E-13 1.58482E-21 3.29069E-08 8.93628E-09 1.85371E-19-8.50506E-05-1.70023E-04-2.33176E-16
     4282 -5.04501E-12 1.14585E-12 1.44768E-20-2.94016E-09 3.05340E-08 1.24521E-18-9.20110E-05-1.34635E-04 9.26637E-17



 n o d a l   p r i n t   o u t   f o r   t i m e  s t e p    1293                              ( at time 1.0799621E-01 )

 nodal point  x-disp     y-disp      z-disp      x-vel       y-vel       z-vel      x-accl      y-accl      z-accl      x-coor      y-coor      z-coor
      293  5.25747E-10-1.68794E-03-3.22151E-12 5.15735E-08-4.98465E-02 3.61337E-09-6.04965E-04-6.30496E-02 6.21028E-06 5.25762E-10-1.00017E+01 1.25000E+00
     4282 -4.80213E-10-1.00389E-03-5.97858E-12-5.57249E-08-3.28283E-02-4.28466E-09 7.01168E-04 4.00232E-01 1.89814E-05-4.80198E-10 9.99900E+00 1.25000E+00



 n o d a l   p r i n t   o u t   f o r   t i m e  s t e p    1293                              ( at time 1.0799621E-01 )

 nodal point  x-rot      y-rot       z-rot       x-rot vel   y-rot vel   z-rot vel   x-rot acc   y-rot acc   z-rot acc
      293 -1.40815E-12 1.75748E-12 2.10346E-21 3.09771E-08 8.69832E-09 3.75730E-19-1.09321E-04-2.87517E-04 1.09033E-16
     4282 -6.38405E-12 1.34189E-12 1.71647E-20 1.45278E-08-1.39222E-09 1.42143E-18-2.55403E-04-1.74941E-04 5.02536E-16



 n o d a l   p r i n t   o u t   f o r   t i m e  s t e p    1316                              ( at time 1.0991874E-01 )

 nodal point  x-disp     y-disp      z-disp      x-vel       y-vel       z-vel      x-accl      y-accl      z-accl      x-coor      y-coor      z-coor
      293  5.72186E-10-1.78372E-03-2.71177E-12 2.34285E-08-4.97376E-02 4.22436E-09-2.73807E-04 8.42437E-02 2.16516E-05 5.72200E-10-1.00018E+01 1.25000E+00
     4282 -5.23490E-10-1.06629E-03-7.48791E-12-7.78573E-09-3.21004E-02-7.03484E-09-4.10710E-04 5.41812E-01 2.94330E-05-5.23475E-10 9.99893E+00 1.25000E+00



 n o d a l   p r i n t   o u t   f o r   t i m e  s t e p    1316                              ( at time 1.0991874E-01 )

 nodal point  x-rot      y-rot       z-rot       x-rot vel   y-rot vel   z-rot vel   x-rot acc   y-rot acc   z-rot acc
      293 -1.88157E-12 1.80198E-13 3.04784E-21 1.62470E-08 6.97851E-09 6.41389E-19-1.08360E-04-1.05833E-04 2.56087E-16
     4282 -7.60740E-12 3.95803E-13 2.00275E-20 3.93786E-09 9.52538E-09 1.62916E-18-2.36803E-04 1.40621E-04 3.28062E-16



 n o d a l   p r i n t   o u t   f o r   t i m e  s t e p    1340                              ( at time 1.1192487E-01 )

 nodal point  x-disp     y-disp      z-disp      x-vel       y-vel       z-vel      x-accl      y-accl      z-accl      x-coor      y-coor      z-coor
      293  6.09918E-10-1.88349E-03-1.92093E-12 1.72428E-08-4.97183E-02 4.87666E-09-1.44304E-04 1.88557E-01 3.49347E-05 6.09932E-10-1.00019E+01 1.25000E+00
     4282 -5.91306E-10-1.12961E-03-4.90055E-12 5.29887E-08-3.10394E-02 1.57327E-11-7.40019E-05 6.27950E-01 3.67879E-05-5.91290E-10 9.99887E+00 1.25000E+00



 n o d a l   p r i n t   o u t   f o r   t i m e  s t e p    1340                              ( at time 1.1192487E-01 )

 nodal point  x-rot      y-rot       z-rot       x-rot vel   y-rot vel   z-rot vel   x-rot acc   y-rot acc   z-rot acc
      293 -1.72628E-13-9.91334E-13 4.69740E-21 6.15881E-09-3.89809E-08 1.17926E-18-4.06234E-04 3.74768E-04-2.95342E-17
     4282 -8.33319E-12 3.56886E-13 2.34127E-20 1.76992E-08 1.94189E-08 1.61494E-18-1.55694E-04 5.27136E-06-2.63076E-16



 n o d a l   p r i n t   o u t   f o r   t i m e  s t e p    1364                              ( at time 1.1393099E-01 )

 nodal point  x-disp     y-disp      z-disp      x-vel       y-vel       z-vel      x-accl      y-accl      z-accl      x-coor      y-coor      z-coor
      293  6.56621E-10-1.98324E-03 4.98503E-14-1.18299E-08-4.97710E-02 1.35554E-09-7.21518E-05-6.84961E-02-9.19449E-06 6.56635E-10-1.00020E+01 1.25000E+00
     4282 -6.50073E-10-1.19056E-03-3.20969E-12 3.67513E-08-2.98191E-02 1.01876E-08 6.95617E-04 4.81900E-01 1.37862E-05-6.50058E-10 9.99881E+00 1.25000E+00



 n o d a l   p r i n t   o u t   f o r   t i m e  s t e p    1364                              ( at time 1.1393099E-01 )

 nodal point  x-rot      y-rot       z-rot       x-rot vel   y-rot vel   z-rot vel   x-rot acc   y-rot acc   z-rot acc
      293 -8.15183E-13 1.38037E-12 7.42691E-21 3.78867E-08-2.65374E-09 1.65131E-18 3.02708E-05-2.29417E-04 1.97623E-16
     4282 -7.59500E-12 2.95749E-12 2.67885E-20-1.12213E-08-2.07726E-09 1.86868E-18-2.11989E-04-4.47553E-04 9.88409E-16



 n o d a l   p r i n t   o u t   f o r   t i m e  s t e p    1388                              ( at time 1.1593711E-01 )

 nodal point  x-disp     y-disp      z-disp      x-vel       y-vel       z-vel      x-accl      y-accl      z-accl      x-coor      y-coor      z-coor
      293  7.17388E-10-2.08363E-03 1.75865E-12 2.08791E-09-5.04238E-02-8.58241E-09 5.49464E-04-3.93335E-01-1.27640E-05 7.17402E-10-1.00021E+01 1.25000E+00
     4282 -7.10107E-10-1.24936E-03-5.44920E-12-6.53127E-08-2.88850E-02 3.12581E-09 2.96007E-05 3.49762E-01-1.99608E-05-7.10091E-10 9.99875E+00 1.25000E+00



 n o d a l   p r i n t   o u t   f o r   t i m e  s t e p    1388                              ( at time 1.1593711E-01 )

 nodal point  x-rot      y-rot       z-rot       x-rot vel   y-rot vel   z-rot vel   x-rot acc   y-rot acc   z-rot acc
      293  1.65306E-12 1.25553E-12 1.12790E-20 2.08891E-08 2.51636E-08 2.04897E-18 2.88045E-05-2.28139E-04 4.28176E-16
     4282 -4.12263E-12-5.99669E-14 3.04525E-20 3.97324E-08 1.63493E-08 1.84777E-18-3.97497E-04-2.08888E-05-8.08485E-16



 n o d a l   p r i n t   o u t   f o r   t i m e  s t e p    1412                              ( at time 1.1794323E-01 )

 nodal point  x-disp     y-disp      z-disp      x-vel       y-vel       z-vel      x-accl      y-accl      z-accl      x-coor      y-coor      z-coor
      293  8.23617E-10-2.18546E-03 3.73309E-12 5.68313E-08-5.11427E-02 2.82850E-09-3.05258E-04-4.69705E-01-7.25815E-05 8.23631E-10-1.00022E+01 1.25000E+00
     4282 -7.67556E-10-1.30697E-03-6.08793E-12-4.92299E-08-2.86192E-02-8.33314E-10-5.14313E-04 1.01057E-01-1.30408E-05-7.67540E-10 9.99869E+00 1.25000E+00



 n o d a l   p r i n t   o u t   f o r   t i m e  s t e p    1412                              ( at time 1.1794323E-01 )

 nodal point  x-rot      y-rot       z-rot       x-rot vel   y-rot vel   z-rot vel   x-rot acc   y-rot acc   z-rot acc
      293  3.28145E-12 1.31302E-12 1.57214E-20 1.80649E-08 1.91835E-09 2.22104E-18-3.38300E-04-2.07020E-04-3.92139E-16
     4282 -9.46380E-12-1.46059E-13 3.40347E-20-3.97544E-09-5.09882E-09 1.82449E-18-1.18952E-05 1.59805E-04 1.15571E-16



 n o d a l   p r i n t   o u t   f o r   t i m e  s t e p    1436                              ( at time 1.1994935E-01 )

 nodal point  x-disp     y-disp      z-disp      x-vel       y-vel       z-vel      x-accl      y-accl      z-accl      x-coor      y-coor      z-coor
      293  8.78179E-10-2.28888E-03 1.13457E-12 2.43564E-08-5.18744E-02-6.89573E-09 7.60369E-04-3.26141E-01 4.76016E-05 8.78194E-10-1.00023E+01 1.25000E+00
     4282 -8.59259E-10-1.36432E-03-2.36402E-12 1.24434E-07-2.86116E-02-2.27829E-09-1.41714E-03-1.42084E-03-3.25130E-05-8.59244E-10 9.99864E+00 1.25000E+00



 n o d a l   p r i n t   o u t   f o r   t i m e  s t e p    1436                              ( at time 1.1994935E-01 )

 nodal point  x-rot      y-rot       z-rot       x-rot vel   y-rot vel   z-rot vel   x-rot acc   y-rot acc   z-rot acc
      293  1.96146E-12-1.70442E-12 2.02192E-20-1.67678E-08-1.76579E-09 2.39601E-18 1.02811E-04 1.86981E-04 1.70914E-15
     4282 -1.04161E-11 1.85278E-12 3.77104E-20-1.86804E-08 2.99870E-08 1.85778E-18 1.77884E-04-1.50950E-04-2.20340E-16



 n o d a l   p r i n t   o u t   f o r   t i m e  s t e p    1460                              ( at time 1.2195547E-01 )

 nodal point  x-disp     y-disp      z-disp      x-vel       y-vel       z-vel      x-accl      y-accl      z-accl      x-coor      y-coor      z-coor
      293  1.00544E-09-2.39337E-03-1.27720E-12 5.49756E-08-5.22452E-02-9.40287E-09-1.00643E-03-2.38404E-01 1.31507E-05 1.00545E-09-1.00024E+01 1.25000E+00
     4282 -9.71076E-10-1.42185E-03 6.43599E-13-1.50675E-07-2.87189E-02-2.83977E-09-6.10515E-05 5.56494E-02-1.83506E-05-9.71060E-10 9.99858E+00 1.25000E+00



 n o d a l   p r i n t   o u t   f o r   t i m e  s t e p    1460                              ( at time 1.2195547E-01 )

 nodal point  x-rot      y-rot       z-rot       x-rot vel   y-rot vel   z-rot vel   x-rot acc   y-rot acc   z-rot acc
      293  9.24695E-13 9.19610E-13 2.55122E-20-9.34669E-09-2.16677E-08 2.80157E-18 7.43112E-05 1.56741E-04 1.30078E-15
     4282 -1.89780E-11 2.32099E-12 4.17364E-20-4.23835E-08 4.08445E-08 1.90948E-18 5.92095E-04-2.76869E-04 1.70927E-15



 n o d a l   p r i n t   o u t   f o r   t i m e  s t e p    1484                              ( at time 1.2396159E-01 )

 nodal point  x-disp     y-disp      z-disp      x-vel       y-vel       z-vel      x-accl      y-accl      z-accl      x-coor      y-coor      z-coor
      293  1.09629E-09-2.49891E-03 2.67356E-13 2.21914E-08-5.29607E-02-3.06777E-09 1.10633E-03-3.97242E-01 4.05310E-05 1.09630E-09-1.00025E+01 1.25000E+00
     4282 -1.06675E-09-1.47953E-03 1.33949E-12-3.40749E-08-2.88152E-02-6.20618E-09-1.03973E-03 4.14410E-04-1.67276E-05-1.06673E-09 9.99852E+00 1.25000E+00



 n o d a l   p r i n t   o u t   f o r   t i m e  s t e p    1484                              ( at time 1.2396159E-01 )

 nodal point  x-rot      y-rot       z-rot       x-rot vel   y-rot vel   z-rot vel   x-rot acc   y-rot acc   z-rot acc
      293  1.43056E-11 1.87761E-12 3.17102E-20 2.89541E-08 1.53085E-08 3.30992E-18-9.48081E-04 2.32877E-06 6.75258E-16
     4282 -1.52847E-11 7.82480E-13 4.60932E-20-2.25931E-08-1.65661E-08 2.10277E-18 1.17791E-04-9.02628E-05 6.35377E-17



 n o d a l   p r i n t   o u t   f o r   t i m e  s t e p    1508                              ( at time 1.2596772E-01 )

 nodal point  x-disp     y-disp      z-disp      x-vel       y-vel       z-vel      x-accl      y-accl      z-accl      x-coor      y-coor      z-coor
      293  1.20781E-09-2.60605E-03 2.47490E-13 3.02328E-08-5.39336E-02 3.97632E-09 5.36513E-04-6.77383E-01-1.25902E-04 1.20783E-09-1.00026E+01 1.25000E+00
     4282 -1.16635E-09-1.53730E-03 2.25470E-12-1.44026E-07-2.87421E-02-8.73213E-09 5.80915E-04 2.95415E-02 6.32640E-05-1.16633E-09 9.99846E+00 1.25000E+00



 n o d a l   p r i n t   o u t   f o r   t i m e  s t e p    1508                              ( at time 1.2596772E-01 )

 nodal point  x-rot      y-rot       z-rot       x-rot vel   y-rot vel   z-rot vel   x-rot acc   y-rot acc   z-rot acc
      293  8.00215E-12-2.40379E-12 3.82889E-20-1.27720E-08-4.70792E-09 3.46792E-18 5.73846E-04 2.98966E-04 1.32210E-15
     4282 -1.67274E-11 2.45855E-12 5.01802E-20-8.10220E-08 1.85001E-08 1.86140E-18 1.26388E-03 2.90600E-05 1.49093E-15



 n o d a l   p r i n t   o u t   f o r   t i m e  s t e p    1532                              ( at time 1.2797384E-01 )

 nodal point  x-disp     y-disp      z-disp      x-vel       y-vel       z-vel      x-accl      y-accl      z-accl      x-coor      y-coor      z-coor
      293  1.33012E-09-2.71569E-03-2.15956E-12 6.14705E-08-5.53344E-02-9.04691E-09 9.34273E-04-5.81477E-01-7.98850E-05 1.33014E-09-1.00027E+01 1.25000E+00
     4282 -1.26970E-09-1.59509E-03 2.87253E-12-7.56738E-08-2.88975E-02 2.26272E-09-1.49854E-03-9.35975E-02 5.41217E-05-1.26968E-09 9.99840E+00 1.25000E+00



 n o d a l   p r i n t   o u t   f o r   t i m e  s t e p    1532                              ( at time 1.2797384E-01 )

 nodal point  x-rot      y-rot       z-rot       x-rot vel   y-rot vel   z-rot vel   x-rot acc   y-rot acc   z-rot acc
      293  1.27110E-11-9.74635E-13 4.59958E-20-2.97202E-09 1.91942E-09 4.03505E-18-9.20650E-06 1.57014E-04 2.36286E-16
     4282 -1.20272E-11-4.73558E-13 5.35856E-20 1.76681E-08-2.45118E-08 1.39555E-18-4.73678E-04 4.34273E-04-1.96888E-15



 n o d a l   p r i n t   o u t   f o r   t i m e  s t e p    1556                              ( at time 1.2997996E-01 )

 nodal point  x-disp     y-disp      z-disp      x-vel       y-vel       z-vel      x-accl      y-accl      z-accl      x-coor      y-coor      z-coor
      293  1.45065E-09-2.82800E-03-7.03758E-12 2.19515E-07-5.66356E-02 5.22511E-09-7.77019E-05-8.29768E-01-2.57216E-05 1.45066E-09-1.00028E+01 1.25000E+00
     4282 -1.43697E-09-1.65359E-03 1.69109E-12-2.16244E-07-2.94375E-02-1.41017E-09 1.53924E-03-1.78907E-01 1.03986E-04-1.43695E-09 9.99835E+00 1.25000E+00



 n o d a l   p r i n t   o u t   f o r   t i m e  s t e p    1556                              ( at time 1.2997996E-01 )

 nodal point  x-rot      y-rot       z-rot       x-rot vel   y-rot vel   z-rot vel   x-rot acc   y-rot acc   z-rot acc
      293  1.92284E-11-1.95895E-13 5.41751E-20 4.47826E-08 1.51125E-08 4.19966E-18-6.37297E-04 1.42286E-04 1.50322E-15
     4282 -2.39460E-11 3.01752E-12 5.56791E-20-4.99239E-08-5.46007E-10 6.90947E-19 9.84966E-04-1.71624E-05-6.39848E-16



 n o d a l   p r i n t   o u t   f o r   t i m e  s t e p    1580                              ( at time 1.3198608E-01 )

 nodal point  x-disp     y-disp      z-disp      x-vel       y-vel       z-vel      x-accl      y-accl      z-accl      x-coor      y-coor      z-coor
      293  1.60680E-09-2.94333E-03-6.96204E-12 4.19856E-08-5.85413E-02-1.20572E-08-6.51216E-04-1.77628E+00 3.05695E-05 1.60681E-09-1.00029E+01 1.25000E+00
     4282 -1.54038E-09-1.71353E-03 3.75367E-12-1.58407E-07-3.04691E-02-1.55943E-08-1.22843E-03-6.39494E-01 1.27636E-04-1.54037E-09 9.99829E+00 1.25000E+00



 n o d a l   p r i n t   o u t   f o r   t i m e  s t e p    1580                              ( at time 1.3198608E-01 )

 nodal point  x-rot      y-rot       z-rot       x-rot vel   y-rot vel   z-rot vel   x-rot acc   y-rot acc   z-rot acc
      293  1.33464E-11 1.00196E-12 6.29189E-20-7.70967E-09 2.31969E-08 4.52839E-18-1.72021E-04-5.22866E-04-2.07739E-15
     4282 -1.15954E-11 6.51275E-12 5.58725E-20-3.13315E-08 1.35632E-08-3.12194E-19-7.87114E-04-4.70270E-04 4.07005E-16



 n o d a l   p r i n t   o u t   f o r   t i m e  s t e p    1604                              ( at time 1.3399220E-01 )

 nodal point  x-disp     y-disp      z-disp      x-vel       y-vel       z-vel      x-accl      y-accl      z-accl      x-coor      y-coor      z-coor
      293  1.73710E-09-3.06400E-03-3.86726E-12-3.59542E-08-6.16148E-02 5.28926E-09 3.18208E-04-1.66250E+00-4.64387E-05 1.73711E-09-1.00031E+01 1.25000E+00
     4282 -1.70693E-09-1.77622E-03 8.10302E-12-1.70160E-07-3.20596E-02-1.50162E-09 7.40019E-04-9.39764E-01 7.60155E-05-1.70692E-09 9.99822E+00 1.25000E+00



 n o d a l   p r i n t   o u t   f o r   t i m e  s t e p    1604                              ( at time 1.3399220E-01 )

 nodal point  x-rot      y-rot       z-rot       x-rot vel   y-rot vel   z-rot vel   x-rot acc   y-rot acc   z-rot acc
      293  1.66494E-11-5.05947E-12 7.25604E-20 2.88089E-08-2.65400E-08 4.90080E-18 3.42166E-05 4.89508E-04 2.14398E-15
     4282 -2.86717E-11 2.17535E-12 5.41698E-20-3.63086E-08-9.92987E-09-1.47147E-18 9.88272E-04 1.72694E-04-4.33904E-16



 n o d a l   p r i n t   o u t   f o r   t i m e  s t e p    1628                              ( at time 1.3599832E-01 )

 nodal point  x-disp     y-disp      z-disp      x-vel       y-vel       z-vel      x-accl      y-accl      z-accl      x-coor      y-coor      z-coor
      293  1.89526E-09-3.19157E-03-1.00917E-11 7.90997E-08-6.56280E-02-7.63366E-09 9.54624E-04-2.49220E+00-2.95157E-05 1.89528E-09-1.00032E+01 1.25000E+00
     4282 -1.83255E-09-1.84297E-03 1.03757E-11-2.34182E-07-3.46569E-02-4.37835E-10 4.40311E-04-1.68837E+00 3.91613E-05-1.83254E-09 9.99816E+00 1.25000E+00



 n o d a l   p r i n t   o u t   f o r   t i m e  s t e p    1628                              ( at time 1.3599832E-01 )

 nodal point  x-rot      y-rot       z-rot       x-rot vel   y-rot vel   z-rot vel   x-rot acc   y-rot acc   z-rot acc
      293  1.82776E-11 4.40324E-13 8.21378E-20-9.30359E-09-1.19935E-08 4.79626E-18 6.46279E-04-5.05064E-06-2.14585E-15
     4282 -1.64092E-11 6.44145E-12 5.00052E-20 1.71336E-08-2.56750E-10-3.08665E-18-3.09905E-04-4.98760E-04 1.41858E-15



 n o d a l   p r i n t   o u t   f o r   t i m e  s t e p    1651                              ( at time 1.3792086E-01 )

 nodal point  x-disp     y-disp      z-disp      x-vel       y-vel       z-vel      x-accl      y-accl      z-accl      x-coor      y-coor      z-coor
      293  2.13743E-09-3.32293E-03-1.36724E-11 1.60442E-07-7.08697E-02-6.40594E-09-1.16183E-03-2.75559E+00-1.50727E-05 2.13745E-09-1.00033E+01 1.25000E+00
     4282 -2.00840E-09-1.91296E-03 8.05081E-12-1.16035E-07-3.82407E-02-1.12946E-08-2.81207E-04-2.35136E+00 6.52738E-05-2.00839E-09 9.99809E+00 1.25000E+00



 n o d a l   p r i n t   o u t   f o r   t i m e  s t e p    1651                              ( at time 1.3792086E-01 )

 nodal point  x-rot      y-rot       z-rot       x-rot vel   y-rot vel   z-rot vel   x-rot acc   y-rot acc   z-rot acc
      293  2.03914E-11-3.48176E-12 9.16285E-20-1.22571E-08-2.43872E-08 4.88021E-18-1.25126E-04-1.26979E-04-1.13399E-15
     4282 -1.77669E-11 6.12359E-12 4.14604E-20-3.88896E-08 2.16262E-08-5.45278E-18 1.13464E-04 4.14730E-05-5.25346E-15



 n o d a l   p r i n t   o u t   f o r   t i m e  s t e p    1675                              ( at time 1.3992698E-01 )

 nodal point  x-disp     y-disp      z-disp      x-vel       y-vel       z-vel      x-accl      y-accl      z-accl      x-coor      y-coor      z-coor
      293  2.33055E-09-3.47120E-03-1.71751E-11 9.30176E-08-7.69555E-02-1.01600E-08 8.69522E-04-3.18788E+00-4.71751E-05 2.33057E-09-1.00035E+01 1.25000E+00
     4282 -2.20039E-09-1.99434E-03 1.24661E-11-1.44799E-07-4.27350E-02-6.63971E-09 4.73612E-04-2.37883E+00 9.36233E-05-2.20037E-09 9.99801E+00 1.25000E+00



 n o d a l   p r i n t   o u t   f o r   t i m e  s t e p    1675                              ( at time 1.3992698E-01 )

 nodal point  x-rot      y-rot       z-rot       x-rot vel   y-rot vel   z-rot vel   x-rot acc   y-rot acc   z-rot acc
      293  2.29020E-11 3.56493E-12 1.01627E-19 3.34541E-08-1.38484E-08 4.70788E-18-2.08310E-04-6.81797E-04-8.56320E-15
     4282 -2.44370E-11 6.58273E-12 2.76923E-20-3.90492E-08 1.28681E-08-8.51760E-18 4.15867E-04-2.75177E-04-8.41050E-16



 n o d a l   p r i n t   o u t   f o r   t i m e  s t e p    1699                              ( at time 1.4193310E-01 )

 nodal point  x-disp     y-disp      z-disp      x-vel       y-vel       z-vel      x-accl      y-accl      z-accl      x-coor      y-coor      z-coor
      293  2.53000E-09-3.63198E-03-1.64693E-11 1.94078E-08-8.29906E-02-3.20581E-09 6.67497E-03-2.77809E+00 1.26303E-04 2.53002E-09-1.00036E+01 1.25000E+00
     4282 -2.41533E-09-2.08519E-03 2.10828E-11-1.89645E-07-4.76189E-02 1.55764E-08 7.91820E-04-2.34746E+00-1.95991E-04-2.41532E-09 9.99792E+00 1.25000E+00



 n o d a l   p r i n t   o u t   f o r   t i m e  s t e p    1699                              ( at time 1.4193310E-01 )

 nodal point  x-rot      y-rot       z-rot       x-rot vel   y-rot vel   z-rot vel   x-rot acc   y-rot acc   z-rot acc
      293  1.78146E-11-1.26854E-13 1.10375E-19-2.44559E-08 2.75295E-08 4.38545E-18 2.47477E-04-4.06427E-04-4.41703E-15
     4282 -2.31896E-11-1.40911E-12 8.88902E-21 5.27191E-08-5.58511E-08-1.04283E-17-2.81503E-04 9.71060E-04-7.31848E-15



 n o d a l   p r i n t   o u t   f o r   t i m e  s t e p    1723                              ( at time 1.4393922E-01 )

 nodal point  x-disp     y-disp      z-disp      x-vel       y-vel       z-vel      x-accl      y-accl      z-accl      x-coor      y-coor      z-coor
      293  2.82139E-09-3.80456E-03-1.64514E-11-4.92535E-08-8.88787E-02 1.04964E-08-1.67244E-03-3.00957E+00 8.59363E-05 2.82140E-09-1.00038E+01 1.25000E+00
     4282 -2.64049E-09-2.18548E-03 2.57882E-11-2.08202E-07-5.20990E-02-3.77938E-09 5.36513E-04-2.09786E+00 1.02338E-04-2.64047E-09 9.99781E+00 1.25000E+00



 n o d a l   p r i n t   o u t   f o r   t i m e  s t e p    1723                              ( at time 1.4393922E-01 )

 nodal point  x-rot      y-rot       z-rot       x-rot vel   y-rot vel   z-rot vel   x-rot acc   y-rot acc   z-rot acc
      293  2.56091E-11-5.57000E-12 1.18072E-19 6.02999E-08 7.18650E-09 3.39477E-18-9.35954E-04 4.47508E-04 1.04710E-15
     4282 -2.45403E-11 1.73052E-12-1.44288E-20-1.92615E-08 2.07464E-08-1.26485E-17 6.42826E-05-7.49046E-05-2.92939E-15



 n o d a l   p r i n t   o u t   f o r   t i m e  s t e p    1747                              ( at time 1.4594534E-01 )

 nodal point  x-disp     y-disp      z-disp      x-vel       y-vel       z-vel      x-accl      y-accl      z-accl      x-coor      y-coor      z-coor
      293  3.13796E-09-3.98903E-03-8.10800E-12 1.91061E-07-9.47067E-02 6.53893E-10-1.64284E-03-2.85671E+00-2.76709E-04 3.13797E-09-1.00040E+01 1.25000E+00
[...]

 n o d a l   p r i n t   o u t   f o r   t i m e  s t e p   17515                              ( at time 1.4639672E+00 )

 nodal point  x-rot      y-rot       z-rot       x-rot vel   y-rot vel   z-rot vel   x-rot acc   y-rot acc   z-rot acc
      293 -6.57067E-09-4.20473E-08 2.48895E-09 1.31104E-04 6.34171E-05 9.87656E-09-7.32722E+00 8.75199E-01-2.42435E-07
     4282 -1.30138E-07-1.85717E-07 3.56932E-09-3.32455E-04 4.88373E-04 1.81226E-08 6.10096E+00-1.34748E+00 1.53988E-06



 n o d a l   p r i n t   o u t   f o r   t i m e  s t e p   17539                              ( at time 1.4659733E+00 )

 nodal point  x-disp     y-disp      z-disp      x-vel       y-vel       z-vel      x-accl      y-accl      z-accl      x-coor      y-coor      z-coor
      293  7.78007E-05-1.53583E+00-4.98191E-07-1.05612E-02-3.15067E+00-1.93811E-04-6.96040E+02-7.60164E+03 2.19138E+00 7.78007E-05-1.15358E+01 1.25000E+00
     4282 -9.48255E-05 1.12277E-01 6.05956E-07-6.73862E-02-3.79693E+00-8.10621E-05-1.13117E+01 1.90113E+03 2.65517E+00-9.48255E-05 1.01123E+01 1.25000E+00



 n o d a l   p r i n t   o u t   f o r   t i m e  s t e p   17539                              ( at time 1.4659733E+00 )

 nodal point  x-rot      y-rot       z-rot       x-rot vel   y-rot vel   z-rot vel   x-rot acc   y-rot acc   z-rot acc
      293 -2.45509E-08 3.58495E-08 2.50877E-09 1.44210E-05 3.50697E-04 9.89703E-09-5.54297E+00-7.46724E+00 2.67187E-07
     4282 -1.35042E-07-2.63424E-07 3.60605E-09-5.00133E-04-5.51335E-04 1.83839E-08 1.82770E+00 1.30510E+01-1.33370E-06



 n o d a l   p r i n t   o u t   f o r   t i m e  s t e p   17563                              ( at time 1.4679795E+00 )

 nodal point  x-disp     y-disp      z-disp      x-vel       y-vel       z-vel      x-accl      y-accl      z-accl      x-coor      y-coor      z-coor
      293  1.54125E-04-1.54558E+00-4.40328E-07 7.92070E-03-4.52380E+00-2.57139E-05-1.01262E+03-2.81303E+03 4.08605E-01 1.54125E-04-1.15456E+01 1.25000E+00
     4282 -5.28330E-05 1.13252E-01 6.47129E-07-1.03756E-01 2.82830E+00 1.02465E-04 5.93455E+01-4.93070E+02 4.79035E-01-5.28330E-05 1.01133E+01 1.25000E+00



 n o d a l   p r i n t   o u t   f o r   t i m e  s t e p   17563                              ( at time 1.4679795E+00 )

 nodal point  x-rot      y-rot       z-rot       x-rot vel   y-rot vel   z-rot vel   x-rot acc   y-rot acc   z-rot acc
      293 -7.24646E-08-9.94678E-09 2.52871E-09-6.97696E-04 1.88522E-04 9.90992E-09 6.04038E+00-1.57126E+00 3.21050E-07
     4282  2.49047E-08-1.80961E-07 3.64325E-09 4.70387E-04 1.24411E-03 1.87635E-08-5.14936E+00-1.99243E+01-8.20361E-07



 n o d a l   p r i n t   o u t   f o r   t i m e  s t e p   17587                              ( at time 1.4699856E+00 )

 nodal point  x-disp     y-disp      z-disp      x-vel       y-vel       z-vel      x-accl      y-accl      z-accl      x-coor      y-coor      z-coor
      293  1.05449E-04-1.55144E+00-4.65470E-07-6.00919E-02 5.53244E-01 7.92656E-05-4.31719E+02 3.40846E+03-5.19890E-01 1.05449E-04-1.15514E+01 1.25000E+00
     4282 -6.05878E-05 1.17781E-01 6.20095E-07 7.29653E-02 1.85840E+00 2.83567E-05-1.59750E+02-6.75350E+02 3.79807E-01-6.05878E-05 1.01178E+01 1.25000E+00



 n o d a l   p r i n t   o u t   f o r   t i m e  s t e p   17587                              ( at time 1.4699856E+00 )

 nodal point  x-rot      y-rot       z-rot       x-rot vel   y-rot vel   z-rot vel   x-rot acc   y-rot acc   z-rot acc
      293 -5.79572E-08 7.68031E-09 2.54861E-09-2.79699E-04-2.47220E-04 9.89707E-09 1.23349E+01-1.73071E+00 2.77944E-07
     4282 -4.15865E-08-2.27702E-07 3.68062E-09 5.88704E-04-6.62937E-04 1.87989E-08-5.03506E-01 9.14437E+00-5.11705E-07



 n o d a l   p r i n t   o u t   f o r   t i m e  s t e p   17610                              ( at time 1.4719081E+00 )

 nodal point  x-disp     y-disp      z-disp      x-vel       y-vel       z-vel      x-accl      y-accl      z-accl      x-coor      y-coor      z-coor
      293  5.10519E-05-1.54257E+00-4.26025E-07 1.20314E-01 8.34460E+00 3.78302E-04-8.48336E+02 8.56626E+03-5.34271E-01 5.10519E-05-1.15426E+01 1.25000E+00
     4282  1.33882E-05 1.14636E-01 6.54453E-07 2.47991E-02-5.07350E+00-2.44416E-05 7.58491E+02-1.79603E+03-1.62623E-02 1.33882E-05 1.01146E+01 1.25000E+00



 n o d a l   p r i n t   o u t   f o r   t i m e  s t e p   17610                              ( at time 1.4719081E+00 )

 nodal point  x-rot      y-rot       z-rot       x-rot vel   y-rot vel   z-rot vel   x-rot acc   y-rot acc   z-rot acc
      293  1.56431E-08 2.43537E-08 2.56773E-09-2.72028E-04 8.51246E-04 1.00481E-08 6.65903E-01-1.65366E+01-1.21774E-06
     4282 -8.87225E-08-1.38393E-07 3.71668E-09 8.82316E-05 9.19339E-04 1.86660E-08-2.88603E+00-9.59902E+00 6.30827E-07



 n o d a l   p r i n t   o u t   f o r   t i m e  s t e p   17634                              ( at time 1.4739142E+00 )

 nodal point  x-disp     y-disp      z-disp      x-vel       y-vel       z-vel      x-accl      y-accl      z-accl      x-coor      y-coor      z-coor
      293 -5.65362E-07-1.51424E+00-3.16516E-07 5.76808E-02 1.94486E+01 8.93421E-05 9.25460E+02 4.19272E+03 7.01078E-01-5.65362E-07-1.15142E+01 1.25000E+00
     4282 -5.29024E-05 9.41676E-02 6.76343E-07-4.08455E-03-1.33951E+01-1.70976E-04 1.05180E+03-7.05371E+03 1.32091E-01-5.29024E-05 1.00942E+01 1.25000E+00



 n o d a l   p r i n t   o u t   f o r   t i m e  s t e p   17634                              ( at time 1.4739142E+00 )

 nodal point  x-rot      y-rot       z-rot       x-rot vel   y-rot vel   z-rot vel   x-rot acc   y-rot acc   z-rot acc
      293  3.54600E-09-1.52086E-08 2.58782E-09 7.99841E-05-3.07643E-04 9.99352E-09 7.75000E+00 3.81365E+00 6.54822E-07
     4282 -3.98844E-08-9.26656E-08 3.75451E-09 1.97469E-04 7.84881E-04 1.88666E-08 1.63742E+00-1.72353E+01 1.03578E-06



 n o d a l   p r i n t   o u t   f o r   t i m e  s t e p   17658                              ( at time 1.4759204E+00 )

 nodal point  x-disp     y-disp      z-disp      x-vel       y-vel       z-vel      x-accl      y-accl      z-accl      x-coor      y-coor      z-coor
      293  1.12712E-04-1.47144E+00-4.95102E-07 3.01406E-02 2.14767E+01-1.15042E-04-7.00876E+02-4.51174E+02 1.26865E+00 1.12712E-04-1.14714E+01 1.25000E+00
     4282 -4.02120E-05 5.75485E-02 6.42806E-07-1.06661E-01-2.05886E+01-2.63951E-04 8.41014E+02 2.03356E+03-1.06634E+00-4.02120E-05 1.00575E+01 1.25000E+00



 n o d a l   p r i n t   o u t   f o r   t i m e  s t e p   17658                              ( at time 1.4759204E+00 )

 nodal point  x-rot      y-rot       z-rot       x-rot vel   y-rot vel   z-rot vel   x-rot acc   y-rot acc   z-rot acc
      293  7.48110E-08-5.77579E-08 2.60797E-09 7.10745E-04 1.16358E-04 1.01598E-08-7.54529E+00 2.48738E+00-2.48684E-07
     4282  3.90964E-08-1.08410E-07 3.79252E-09-2.20037E-04 1.28508E-03 1.89224E-08-3.44433E+00-5.81599E+00-2.36252E-07



 n o d a l   p r i n t   o u t   f o r   t i m e  s t e p   17682                              ( at time 1.4779265E+00 )

 nodal point  x-disp     y-disp      z-disp      x-vel       y-vel       z-vel      x-accl      y-accl      z-accl      x-coor      y-coor      z-coor
      293  4.25441E-05-1.42553E+00-3.20402E-07-9.43659E-02 2.36775E+01 1.21648E-04 9.45298E+02-7.60363E+03-7.55307E-01 4.25441E-05-1.14255E+01 1.25000E+00
     4282 -4.62218E-05 1.23981E-02 6.73155E-07-9.10136E-02-2.42089E+01 3.08452E-05-4.95785E+02-4.23229E+03 7.55574E-01-4.62218E-05 1.00124E+01 1.25000E+00



 n o d a l   p r i n t   o u t   f o r   t i m e  s t e p   17682                              ( at time 1.4779265E+00 )

 nodal point  x-rot      y-rot       z-rot       x-rot vel   y-rot vel   z-rot vel   x-rot acc   y-rot acc   z-rot acc
      293 -2.38745E-08-1.33900E-07 2.62830E-09 2.79094E-04-6.73364E-04 1.01494E-08 2.84737E+00 1.95124E+01 1.65508E-06
     4282 -7.12135E-08-1.12955E-07 3.83072E-09 9.58221E-04 4.91019E-05 1.92068E-08-3.81838E+00 1.20954E+00-6.80707E-07



 n o d a l   p r i n t   o u t   f o r   t i m e  s t e p   17706                              ( at time 1.4799326E+00 )

 nodal point  x-disp     y-disp      z-disp      x-vel       y-vel       z-vel      x-accl      y-accl      z-accl      x-coor      y-coor      z-coor
      293 -1.96229E-05-1.38529E+00-2.48568E-07-1.63759E-01 1.86937E+01-3.85771E-05 2.72343E+02 2.33182E+03-6.35133E-01-1.96229E-05-1.13853E+01 1.25000E+00
     4282 -1.75429E-05-3.61598E-02 6.35774E-07 2.56582E-03-2.05485E+01-1.88866E-04 1.31051E+03 4.35614E+02 1.31062E+00-1.75429E-05 9.96384E+00 1.25000E+00



 n o d a l   p r i n t   o u t   f o r   t i m e  s t e p   17706                              ( at time 1.4799326E+00 )

 nodal point  x-rot      y-rot       z-rot       x-rot vel   y-rot vel   z-rot vel   x-rot acc   y-rot acc   z-rot acc
      293  1.96979E-08 5.06977E-08 2.64867E-09 3.97574E-04-2.46199E-04 1.01230E-08-3.69477E+00-7.81827E+00-4.35354E-07
     4282 -5.37193E-08-1.09547E-07 3.86915E-09 6.04087E-05-8.17562E-04 1.93536E-08-9.86109E-01-1.88684E+00 3.12230E-07



 n o d a l   p r i n t   o u t   f o r   t i m e  s t e p   17730                              ( at time 1.4819387E+00 )

 nodal point  x-disp     y-disp      z-disp      x-vel       y-vel       z-vel      x-accl      y-accl      z-accl      x-coor      y-coor      z-coor
      293 -1.48255E-05-1.35123E+00-2.97073E-07-6.36814E-02 1.20997E+01-4.69517E-04-4.87843E+02-1.43144E+03 1.52806E-01-1.48255E-05-1.13512E+01 1.25000E+00
     4282 -1.97848E-05-7.20872E-02 7.10629E-07-1.32934E-01-1.64381E+01-7.11958E-06 9.38031E+02-1.68230E+03-2.08251E+00-1.97848E-05 9.92791E+00 1.25000E+00



 n o d a l   p r i n t   o u t   f o r   t i m e  s t e p   17730                              ( at time 1.4819387E+00 )

 nodal point  x-rot      y-rot       z-rot       x-rot vel   y-rot vel   z-rot vel   x-rot acc   y-rot acc   z-rot acc
      293  1.03468E-08 2.55312E-08 2.66910E-09-1.04327E-04-1.30661E-05 1.01884E-08-1.08669E+00 1.30855E+00-1.30968E-07
     4282 -6.07968E-08-1.95742E-07 3.90783E-09-4.02350E-04-1.69674E-04 1.91544E-08-3.03111E+00 6.55860E+00-1.41019E-06



 n o d a l   p r i n t   o u t   f o r   t i m e  s t e p   17754                              ( at time 1.4839448E+00 )

 nodal point  x-disp     y-disp      z-disp      x-vel       y-vel       z-vel      x-accl      y-accl      z-accl      x-coor      y-coor      z-coor
      293 -3.65628E-06-1.33097E+00-4.11023E-07 1.59138E-01 7.44471E+00-1.26971E-04-1.18371E+03-1.73168E+03 2.38804E+00-3.65628E-06-1.13310E+01 1.25000E+00
     4282 -1.13645E-05-1.04536E-01 9.04766E-07 3.56470E-02-1.39935E+01 1.64884E-04-1.20790E+03 3.72051E+03-2.23236E+00-1.13645E-05 9.89546E+00 1.25000E+00



 n o d a l   p r i n t   o u t   f o r   t i m e  s t e p   17754                              ( at time 1.4839448E+00 )

 nodal point  x-rot      y-rot       z-rot       x-rot vel   y-rot vel   z-rot vel   x-rot acc   y-rot acc   z-rot acc
      293 -7.07365E-10 1.09588E-07 2.68960E-09-3.61332E-04 4.48580E-04 1.02810E-08 4.87741E-01-4.89063E+00-2.45890E-07
     4282 -2.95577E-08-2.34521E-07 3.94661E-09 2.38452E-04-1.26808E-05 1.94662E-08-1.53936E+00 4.14993E+00-6.12217E-07



 n o d a l   p r i n t   o u t   f o r   t i m e  s t e p   17778                              ( at time 1.4859510E+00 )

 nodal point  x-disp     y-disp      z-disp      x-vel       y-vel       z-vel      x-accl      y-accl      z-accl      x-coor      y-coor      z-coor
      293 -3.89922E-05-1.31663E+00-4.86523E-07-2.05252E-01 6.15835E+00-1.27055E-04 9.62741E+02-2.77255E+03 1.90273E+00-3.89922E-05-1.13166E+01 1.25000E+00
     4282 -3.36859E-06-1.26555E-01 9.00053E-07-4.09006E-02-9.26630E+00 4.59703E-04 4.45748E+02-2.87115E+03-2.44490E+00-3.36859E-06 9.87344E+00 1.25000E+00



 n o d a l   p r i n t   o u t   f o r   t i m e  s t e p   17778                              ( at time 1.4859510E+00 )

 nodal point  x-rot      y-rot       z-rot       x-rot vel   y-rot vel   z-rot vel   x-rot acc   y-rot acc   z-rot acc
      293  3.02763E-08 7.58288E-09 2.71018E-09 1.17747E-04-1.16442E-05 1.02761E-08-2.09920E+00 1.87400E+00 8.88701E-08
     4282 -3.61255E-08-1.39557E-07 3.98566E-09 1.80453E-04 2.02828E-04 1.95471E-08 4.56380E+00-4.65332E+00 1.53942E-06



 n o d a l   p r i n t   o u t   f o r   t i m e  s t e p   17802                              ( at time 1.4879571E+00 )

 nodal point  x-disp     y-disp      z-disp      x-vel       y-vel       z-vel      x-accl      y-accl      z-accl      x-coor      y-coor      z-coor
      293 -7.76866E-05-1.30669E+00-4.07121E-07-1.34572E-01 3.80246E+00 3.48470E-04 5.45071E+02-3.27746E+03 5.48529E-01-7.76866E-05-1.13067E+01 1.25000E+00
     4282  4.46482E-05-1.42917E-01 8.39399E-07-1.60864E-01-5.77135E+00-3.69883E-04 1.44622E+03 1.02222E+02 3.51988E+00 4.46482E-05 9.85708E+00 1.25000E+00



 n o d a l   p r i n t   o u t   f o r   t i m e  s t e p   17802                              ( at time 1.4879571E+00 )

 nodal point  x-rot      y-rot       z-rot       x-rot vel   y-rot vel   z-rot vel   x-rot acc   y-rot acc   z-rot acc
      293  4.72333E-09-3.87467E-08 2.73083E-09-6.62608E-04-1.98007E-04 1.02887E-08 3.79819E+00 7.53971E+00 8.72564E-07
     4282 -2.97919E-08-1.44975E-07 4.02490E-09-5.14542E-04 4.75406E-04 1.94878E-08-3.10645E+00-1.24515E+01 1.55195E-07



 n o d a l   p r i n t   o u t   f o r   t i m e  s t e p   17826                              ( at time 1.4899632E+00 )

 nodal point  x-disp     y-disp      z-disp      x-vel       y-vel       z-vel      x-accl      y-accl      z-accl      x-coor      y-coor      z-coor
      293 -1.93372E-05-1.30323E+00-3.57596E-07 6.78822E-02-2.36459E+00 6.73475E-05-2.53418E+02 1.08097E+03 7.30262E-01-1.93372E-05-1.13032E+01 1.25000E+00
     4282 -4.96777E-06-1.51804E-01 9.56509E-07 1.60430E-01-4.59003E+00 4.91385E-04 2.25140E+02 3.46130E+03 6.69457E-01-4.96777E-06 9.84820E+00 1.25000E+00



 n o d a l   p r i n t   o u t   f o r   t i m e  s t e p   17826                              ( at time 1.4899632E+00 )

 nodal point  x-rot      y-rot       z-rot       x-rot vel   y-rot vel   z-rot vel   x-rot acc   y-rot acc   z-rot acc
      293  2.26583E-08-5.74976E-08 2.75155E-09 2.42508E-04 2.45256E-04 1.03550E-08-3.30949E+00 2.97407E+00 1.38631E-07
     4282 -6.25554E-08-1.59660E-07 4.06416E-09-6.24866E-04-2.48650E-04 1.95933E-08 8.23333E-01 4.70466E+00-6.37290E-07



 n o d a l   p r i n t   o u t   f o r   t i m e  s t e p   17850                              ( at time 1.4919693E+00 )

 nodal point  x-disp     y-disp      z-disp      x-vel       y-vel       z-vel      x-accl      y-accl      z-accl      x-coor      y-coor      z-coor
      293 -1.32178E-04-1.30921E+00-3.42877E-07-1.16811E-01-4.93523E+00-1.38020E-04 8.20379E+02-4.24522E+03-9.97963E-01-1.32178E-04-1.13092E+01 1.25000E+00
     4282  5.95245E-05-1.53383E-01 9.57315E-07 1.61701E-01 1.71455E+00-4.28744E-05-1.01951E+03 4.23253E+03-9.81061E-01 5.95245E-05 9.84662E+00 1.25000E+00



 n o d a l   p r i n t   o u t   f o r   t i m e  s t e p   17850                              ( at time 1.4919693E+00 )

 nodal point  x-rot      y-rot       z-rot       x-rot vel   y-rot vel   z-rot vel   x-rot acc   y-rot acc   z-rot acc
      293 -2.14348E-08-4.14365E-08 2.77220E-09-4.65848E-04-1.24021E-03 1.01437E-08 9.84274E+00 8.99378E+00 1.52587E-06
     4282 -1.07090E-07-1.54463E-07 4.10346E-09-2.61171E-04-1.67663E-04 1.96344E-08 7.23311E+00-6.89793E-01 1.82847E-06



 n o d a l   p r i n t   o u t   f o r   t i m e  s t e p   17874                              ( at time 1.4939754E+00 )

 nodal point  x-disp     y-disp      z-disp      x-vel       y-vel       z-vel      x-accl      y-accl      z-accl      x-coor      y-coor      z-coor
      293 -7.19016E-05-1.32860E+00-4.37029E-07 1.14480E-02-1.23024E+01-3.32626E-05-2.55646E+01-1.73296E+02 9.76735E-01-7.19016E-05-1.13286E+01 1.25000E+00
     4282  4.76540E-05-1.40485E-01 1.01172E-06-6.68748E-02 1.21025E+01 5.54331E-04 1.50688E+02-1.39701E+03-2.93915E+00 4.76540E-05 9.85952E+00 1.25000E+00



 n o d a l   p r i n t   o u t   f o r   t i m e  s t e p   17874                              ( at time 1.4939754E+00 )

 nodal point  x-rot      y-rot       z-rot       x-rot vel   y-rot vel   z-rot vel   x-rot acc   y-rot acc   z-rot acc
      293 -3.47848E-08 1.82443E-08 2.79304E-09-1.49408E-04 6.34133E-05 1.04347E-08 2.06073E+00 1.71817E-01 1.09673E-07
     4282  2.91293E-09-1.73922E-07 4.14287E-09-7.67840E-04-2.60130E-04 1.96213E-08-4.51271E+00 7.64756E+00-1.42452E-06



 n o d a l   p r i n t   o u t   f o r   t i m e  s t e p   17898                              ( at time 1.4959816E+00 )

 nodal point  x-disp     y-disp      z-disp      x-vel       y-vel       z-vel      x-accl      y-accl      z-accl      x-coor      y-coor      z-coor
      293 -5.53111E-05-1.35036E+00-3.69171E-07-1.04245E-03-1.20602E+01-5.62806E-05 1.92662E+02 4.81129E+03 2.22190E-01-5.53111E-05-1.13504E+01 1.25000E+00
     4282 -2.76350E-06-1.16318E-01 1.07903E-06-1.11200E-01 1.09935E+01 1.29072E-04 1.52502E+03-5.19494E+03-1.63432E+00-2.76350E-06 9.88368E+00 1.25000E+00



 n o d a l   p r i n t   o u t   f o r   t i m e  s t e p   17898                              ( at time 1.4959816E+00 )

 nodal point  x-rot      y-rot       z-rot       x-rot vel   y-rot vel   z-rot vel   x-rot acc   y-rot acc   z-rot acc
      293 -1.28532E-08 9.63320E-09 2.81404E-09-4.77663E-04 6.04336E-04 1.04648E-08 4.10580E+00-9.12041E+00-1.41207E-07
     4282 -3.75973E-08-1.27590E-07 4.18250E-09-4.58257E-04-5.94686E-05 1.97816E-08 1.29795E+00 6.88926E+00-3.02162E-07



 n o d a l   p r i n t   o u t   f o r   t i m e  s t e p   17922                              ( at time 1.4979877E+00 )

 nodal point  x-disp     y-disp      z-disp      x-vel       y-vel       z-vel      x-accl      y-accl      z-accl      x-coor      y-coor      z-coor
      293 -6.36620E-05-1.37025E+00-3.51046E-07 9.92995E-02-6.06542E+00-2.89900E-04 1.39166E+02 6.95385E+03 1.91209E+00-6.36620E-05-1.13702E+01 1.25000E+00
     4282  8.36336E-05-9.63996E-02 1.01907E-06 1.15501E-01 9.34107E+00-1.24034E-04-5.50172E+02-3.33986E+03 9.48708E-01 8.36336E-05 9.90360E+00 1.25000E+00



 n o d a l   p r i n t   o u t   f o r   t i m e  s t e p   17922                              ( at time 1.4979877E+00 )

 nodal point  x-rot      y-rot       z-rot       x-rot vel   y-rot vel   z-rot vel   x-rot acc   y-rot acc   z-rot acc
      293  6.35080E-09 1.74589E-09 2.83518E-09-4.00832E-04-2.48600E-04 1.04898E-08 3.33865E+00 3.65202E+00 5.58877E-07
     4282 -1.31158E-07-6.08334E-08 4.22217E-09-1.69819E-04 4.12404E-04 1.97410E-08 1.39706E+00-5.71718E+00 1.07932E-06



 n o d a l   p r i n t   o u t   f o r   t i m e  s t e p   17945                              ( at time 1.4999102E+00 )

 nodal point  x-disp     y-disp      z-disp      x-vel       y-vel       z-vel      x-accl      y-accl      z-accl      x-coor      y-coor      z-coor
      293 -7.49693E-05-1.37718E+00-3.31892E-07-9.74976E-02-2.58185E+00-1.21777E-04-5.13332E+02-3.75652E+03 4.68907E-01-7.49693E-05-1.13772E+01 1.25000E+00
     4282  6.68792E-05-8.51275E-02 9.93793E-07 1.22178E-01 3.48874E+00-1.65220E-06-8.30899E+02-5.78798E+03 1.21520E+00 6.68792E-05 9.91487E+00 1.25000E+00



 n o d a l   p r i n t   o u t   f o r   t i m e  s t e p   17945                              ( at time 1.4999102E+00 )

 nodal point  x-rot      y-rot       z-rot       x-rot vel   y-rot vel   z-rot vel   x-rot acc   y-rot acc   z-rot acc
      293  4.44499E-08-1.69107E-08 2.85553E-09-2.33194E-04-1.19791E-04 1.06463E-08-5.08943E+00 1.42120E+01 1.19127E-06
     4282 -1.02296E-08-8.57366E-08 4.26047E-09-3.76039E-04 1.06790E-03 1.98125E-08 4.18469E+00-1.93273E+01 8.45774E-07
