 LS-DYNA keyword deck by LS-PrePost                                      
                         ls-dyna smp.129956 s           date 08/27/2018

{BEGIN LEGEND}
 Entity #        Title
        1     CrossSection_1                                                       
{END LEGEND}



 line#1  section#     time        x-force     y-force     z-force    magnitude
 line#2  resultant  moments       x-moment    y-moment    z-moment   magnitude
 line#3  centroids                x           y           z            area  
           1    0.00000E+00     0.0000E+00  0.0000E+00  0.0000E+00  0.0000E+00
global system                   0.0000E+00  0.0000E+00  0.0000E+00  0.0000E+00
                                1.0331E-07  1.0000E+01  1.2500E+00  0.0000E+00

           1    2.00612E-03     0.0000E+00  0.0000E+00  0.0000E+00  0.0000E+00
global system                   0.0000E+00  0.0000E+00  0.0000E+00  0.0000E+00
                                5.4500E-07  1.0000E+01  1.2500E+00  5.4000E+01

           1    4.01224E-03     0.0000E+00  0.0000E+00  0.0000E+00  0.0000E+00
global system                   0.0000E+00  0.0000E+00  0.0000E+00  0.0000E+00
                                5.4500E-07  1.0000E+01  1.2500E+00  5.4000E+01

           1    6.01836E-03     0.0000E+00  0.0000E+00  0.0000E+00  0.0000E+00
global system                   0.0000E+00  0.0000E+00  0.0000E+00  0.0000E+00
                                5.4500E-07  1.0000E+01  1.2500E+00  5.4000E+01

           1    8.02449E-03     0.0000E+00  0.0000E+00  0.0000E+00  0.0000E+00
global system                   0.0000E+00  0.0000E+00  0.0000E+00  0.0000E+00
                                5.4500E-07  1.0000E+01  1.2500E+00  5.4000E+01

           1    1.00306E-02    -3.8204E-37  4.1968E-30  5.0167E-37  0.0000E+00
global system                   5.2662E-36 -1.7069E-36  1.2444E-32  0.0000E+00
                               -1.6143E-07  1.0000E+01  1.2500E+00  5.4000E+01

           1    1.20367E-02    -1.4641E-27 -3.1252E-20 -8.8070E-28  3.1252E-20
global system                  -3.8774E-26  1.2155E-26  1.2270E-23  0.0000E+00
                                2.6243E-07  1.0000E+01  1.2500E+00  5.4000E+01

           1    1.40429E-02    -1.4095E-18 -9.7393E-11  3.5889E-20  9.7393E-11
global system                  -9.7145E-17  1.6597E-18  1.9589E-18  9.7178E-17
                                5.4500E-07  1.0000E+01  1.2500E+00  5.4000E+01

           1    1.60490E-02    -4.2633E-13 -1.2926E-05  7.4075E-15  1.2926E-05
global system                  -1.0914E-11  8.8558E-13 -6.3991E-12  1.2683E-11
                                2.6243E-07  1.0000E+01  1.2500E+00  5.4000E+01

           1    1.80551E-02     9.5497E-12 -3.2150E-04 -3.2068E-13  3.2150E-04
global system                  -1.7462E-10  8.9267E-12  1.3679E-10  2.2200E-10
                                5.4500E-07  1.0000E+01  1.2500E+00  5.4000E+01

           1    2.00612E-02     6.0709E-11 -7.4284E-04 -9.4466E-13  7.4284E-04
global system                  -7.5670E-10  6.2555E-11  6.9872E-10  1.0318E-09
                                6.4058E-07  1.0000E+01  1.2500E+00  5.4000E+01

           1    2.20673E-02     5.9572E-11 -1.3671E-03  7.7799E-13  1.3671E-03
global system                  -1.6298E-09 -3.0332E-11  7.7896E-10  1.8067E-09
                                4.3307E-07  1.0000E+01  1.2500E+00  5.4000E+01

           1    2.40735E-02    -4.8203E-11 -2.1894E-03 -1.7436E-12  2.1894E-03
global system                  -1.3970E-09 -1.7549E-10 -8.9185E-10  1.6667E-09
                                7.3899E-08  1.0000E+01  1.2500E+00  5.4000E+01

           1    2.60796E-02     1.4370E-10 -3.1338E-03 -6.6160E-12  3.1338E-03
global system                  -2.3283E-09 -9.3102E-11  2.4438E-09  3.3767E-09
                                8.1239E-07  1.0000E+01  1.2500E+00  5.4000E+01

           1    2.80021E-02    -3.2742E-11 -4.1217E-03  7.0539E-12  4.1217E-03
global system                  -1.8626E-09  2.9546E-10 -8.9298E-10  2.0867E-09
                                7.6112E-07  1.0000E+01  1.2500E+00  5.4000E+01

           1    3.00082E-02     5.3478E-10 -5.2356E-03 -3.1012E-12  5.2356E-03
global system                  -3.2596E-09 -2.8476E-10  7.4265E-09  8.1154E-09
                                1.0024E-06  1.0000E+01  1.2500E+00  5.4000E+01

           1    3.20144E-02    -6.3665E-11 -6.4161E-03  2.5404E-11  6.4161E-03
global system                  -2.7940E-09  8.1638E-10 -2.1709E-10  2.9189E-09
                                4.7104E-07  1.0000E+01  1.2500E+00  5.4000E+01

           1    3.40205E-02    -3.9836E-10 -7.5176E-03  1.7630E-11  7.5176E-03
global system                  -5.5879E-09  4.0470E-10 -1.6733E-09  5.8471E-09
                                1.2340E-07  1.0000E+01  1.2500E+00  5.4000E+01

           1    3.60266E-02    -1.0550E-10 -8.5754E-03 -2.4735E-11  8.5754E-03
global system                  -9.3132E-09  1.9120E-10 -6.4245E-10  9.3373E-09
                               -2.1044E-07  1.0000E+01  1.2500E+00  5.4000E+01

           1    3.80327E-02     2.3647E-11 -9.6908E-03  3.6989E-11  9.6908E-03
global system                  -1.1176E-08  4.7851E-10  2.5012E-10  1.1189E-08
                               -1.4576E-07  1.0000E+01  1.2500E+00  5.4000E+01

           1    4.00388E-02     4.9840E-10 -1.0860E-02  9.2942E-12  1.0860E-02
global system                  -1.4901E-08  4.4331E-10 -4.4670E-09  1.5563E-08
                               -7.5389E-07  9.9999E+00  1.2500E+00  5.4000E+01

           1    4.20450E-02     8.4765E-10 -1.2275E-02  1.1599E-11  1.2275E-02
global system                  -1.3970E-08 -8.1882E-10 -1.6227E-08  2.1428E-08
                               -4.3754E-07  9.9999E+00  1.2500E+00  5.4000E+01

           1    4.40511E-02     1.8917E-10 -1.3557E-02 -1.3007E-11  1.3557E-02
global system                  -1.3039E-08 -4.5633E-10  1.3990E-08  1.9129E-08
                                4.4394E-07  9.9999E+00  1.2500E+00  5.4000E+01

           1    4.60572E-02     3.2014E-10 -1.4864E-02  1.1921E-11  1.4864E-02
global system                  -1.8626E-08 -3.2830E-10 -8.3322E-09  2.0408E-08
                                2.0840E-07  9.9999E+00  1.2500E+00  5.4000E+01

           1    4.80633E-02    -3.2014E-10 -1.6231E-02  7.2204E-11  1.6231E-02
global system                  -1.1176E-08 -2.9034E-10  1.4796E-08  1.8544E-08
                               -4.4814E-08  9.9999E+00  1.2500E+00  5.4000E+01

           1    5.00695E-02     5.0932E-10 -1.7527E-02  4.1873E-11  1.7527E-02
global system                  -1.8626E-08 -3.1801E-10 -2.2316E-09  1.8762E-08
                               -1.1104E-07  9.9999E+00  1.2500E+00  5.4000E+01

           1    5.20756E-02     3.9290E-10 -1.8916E-02  4.7616E-11  1.8916E-02
global system                  -1.1176E-08 -3.6514E-10 -6.5824E-09  1.2975E-08
                               -1.2142E-07  9.9999E+00  1.2500E+00  5.4000E+01

           1    5.40817E-02     7.9308E-10 -2.0385E-02 -1.0179E-11  2.0385E-02
global system                  -2.2352E-08 -3.1880E-10 -1.5696E-08  2.7314E-08
                               -6.5565E-08  9.9999E+00  1.2500E+00  5.4000E+01

           1    5.60042E-02     2.5248E-09 -2.1806E-02 -2.5799E-12  2.1806E-02
global system                  -3.7253E-09 -3.2033E-10  1.7453E-08  1.7849E-08
                                4.8037E-07  9.9999E+00  1.2500E+00  5.4000E+01

           1    5.80103E-02     1.1423E-09 -2.3303E-02 -8.3035E-11  2.3303E-02
global system                  -1.4901E-08 -1.0367E-09 -1.3611E-09  1.4999E-08
                                6.9373E-08  9.9998E+00  1.2500E+00  5.4000E+01

           1    6.00165E-02    -6.9849E-10 -2.5076E-02  1.2060E-10  2.5076E-02
global system                  -7.4506E-09  1.6751E-09 -2.5065E-08  2.6203E-08
                               -3.0305E-07  9.9998E+00  1.2500E+00  5.4000E+01

           1    6.20226E-02    -1.0550E-09 -2.7048E-02  4.2693E-11  2.7048E-02
global system                  -2.2352E-08  2.8436E-09 -2.3922E-08  3.2862E-08
                               -6.3402E-07  9.9998E+00  1.2500E+00  5.4000E+01

           1    6.40287E-02     1.2224E-09 -2.9011E-02  8.2508E-11  2.9011E-02
global system                  -1.4901E-08 -1.7475E-09 -9.6567E-09  1.7842E-08
                               -1.4291E-06  9.9998E+00  1.2500E+00  5.4000E+01

           1    6.60348E-02    -1.5643E-09 -3.1122E-02  1.9864E-10  3.1122E-02
global system                  -1.1176E-08  2.6391E-09  6.9821E-09  1.3439E-08
                               -5.2115E-07  9.9998E+00  1.2500E+00  5.4000E+01

           1    6.80410E-02    -4.2201E-10 -3.3119E-02 -7.1577E-11  3.3119E-02
global system                  -3.7253E-09  7.8018E-10 -2.5619E-08  2.5900E-08
                               -3.0790E-07  9.9998E+00  1.2500E+00  5.4000E+01

           1    7.00471E-02     1.2224E-09 -3.5162E-02 -2.3427E-10  3.5162E-02
global system                  -2.2352E-08 -1.9626E-09  7.5671E-09  2.3679E-08
                               -2.5006E-07  9.9998E+00  1.2500E+00  5.4000E+01

           1    7.20532E-02     1.7244E-09 -3.7367E-02 -1.0992E-10  3.7367E-02
global system                  -1.4901E-08  1.0915E-09 -4.0338E-08  4.3016E-08
                                8.4827E-08  9.9998E+00  1.2500E+00  5.4000E+01

           1    7.40593E-02     1.0405E-09 -3.9485E-02 -4.5044E-12  3.9485E-02
global system                  -7.4506E-09  4.5782E-10  4.6823E-08  4.7414E-08
                                2.9720E-07  9.9998E+00  1.2500E+00  5.4000E+01

           1    7.60654E-02     1.6589E-09 -4.1653E-02  1.3925E-10  4.1653E-02
global system                   3.7253E-09  1.9420E-09  1.5388E-08  1.5951E-08
                                8.6609E-07  9.9998E+00  1.2500E+00  5.4000E+01

           1    7.80716E-02     4.5984E-09 -4.4650E-02  6.1720E-11  4.4650E-02
global system                  -1.8626E-08 -5.6811E-09  3.7386E-08  4.2153E-08
                                5.2060E-07  9.9998E+00  1.2500E+00  5.4000E+01

           1    8.00777E-02     2.1973E-09 -4.8051E-02 -1.0202E-10  4.8051E-02
global system                  -7.4506E-09  7.9615E-10  9.5048E-08  9.5343E-08
                                5.7049E-07  9.9997E+00  1.2500E+00  5.4000E+01

           1    8.20002E-02     3.2160E-09 -5.2056E-02  4.1418E-10  5.2056E-02
global system                  -7.4506E-09 -1.3208E-10  3.4390E-08  3.5188E-08
                                2.2589E-07  9.9997E+00  1.2500E+00  5.4000E+01

           1    8.40063E-02     3.6671E-09 -5.6967E-02  2.0574E-10  5.6967E-02
global system                  -7.4506E-09  9.1362E-10 -9.3910E-08  9.4210E-08
                               -5.0609E-07  9.9997E+00  1.2500E+00  5.4000E+01

           1    8.60125E-02     2.8667E-09 -6.2275E-02 -1.7035E-10  6.2275E-02
global system                  -7.4506E-09  4.4505E-09 -3.9587E-08  4.0527E-08
                               -4.9902E-07  9.9997E+00  1.2500E+00  5.4000E+01

           1    8.80186E-02     6.9413E-09 -6.7761E-02 -1.8081E-10  6.7761E-02
global system                   7.4506E-09 -1.9474E-09  6.0280E-08  6.0769E-08
                                2.1717E-07  9.9996E+00  1.2500E+00  5.4000E+01

           1    9.00247E-02     2.9831E-09 -7.3658E-02 -2.5924E-10  7.3658E-02
global system                  -5.2154E-08 -3.6315E-09 -5.5137E-08  7.5982E-08
                               -5.7320E-07  9.9996E+00  1.2500E+00  5.4000E+01

           1    9.20308E-02     4.4238E-09 -7.9751E-02 -1.4706E-10  7.9751E-02
global system                  -2.2352E-08  6.0522E-09 -9.3872E-08  9.6686E-08
                               -1.7968E-06  9.9996E+00  1.2500E+00  5.4000E+01

           1    9.40370E-02     2.2119E-09 -8.5792E-02 -3.1885E-10  8.5792E-02
global system                  -3.7253E-08  5.7659E-09 -5.4635E-08  6.6378E-08
                               -7.9191E-07  9.9995E+00  1.2500E+00  5.4000E+01

           1    9.60431E-02     7.6834E-09 -9.1866E-02  1.6068E-10  9.1866E-02
global system                  -7.4506E-09 -1.2683E-08  1.5810E-07  1.5879E-07
                                3.6138E-07  9.9995E+00  1.2500E+00  5.4000E+01

           1    9.80492E-02     9.6916E-09 -9.8054E-02 -3.0204E-10  9.8054E-02
global system                  -2.2352E-08  7.1778E-10 -7.3194E-08  7.6534E-08
                                4.1726E-08  9.9994E+00  1.2500E+00  5.4000E+01

           1    1.00055E-01     1.3621E-08 -1.0468E-01 -4.5042E-10  1.0468E-01
global system                   8.9407E-08 -3.0297E-09  8.0715E-08  1.2049E-07
                               -2.1767E-07  9.9994E+00  1.2500E+00  5.4000E+01

           1    1.02061E-01     8.8185E-09 -1.1217E-01  4.2086E-10  1.1217E-01
global system                   7.4506E-08 -4.7055E-09 -1.3882E-07  1.5762E-07
                               -1.1366E-06  9.9993E+00  1.2500E+00  5.4000E+01

           1    1.04068E-01     2.0809E-08 -1.1955E-01 -2.1638E-10  1.1955E-01
global system                   2.9802E-08 -7.8996E-09  1.6897E-07  1.7176E-07
                               -1.4313E-06  9.9993E+00  1.2500E+00  5.4000E+01

           1    1.06074E-01     9.1386E-09 -1.2705E-01 -5.8888E-10  1.2705E-01
global system                   2.9802E-08  5.5044E-09  2.2065E-09  3.0387E-08
                               -1.7191E-07  9.9992E+00  1.2500E+00  5.4000E+01

           1    1.08080E-01     2.3836E-08 -1.3445E-01 -4.5521E-10  1.3445E-01
global system                  -2.9802E-08 -7.9730E-09  4.1862E-07  4.1976E-07
                                1.0690E-06  9.9992E+00  1.2500E+00  5.4000E+01

           1    1.10002E-01     1.7433E-08 -1.4128E-01  1.0455E-11  1.4128E-01
global system                   0.0000E+00 -5.2233E-09  4.5514E-07  4.5517E-07
                                1.0657E-06  9.9991E+00  1.2500E+00  5.4000E+01

           1    1.12008E-01     3.4925E-09 -1.4874E-01 -2.4786E-10  1.4874E-01
global system                   1.4901E-08  8.9041E-09  2.2046E-07  2.2115E-07
                                8.2835E-07  9.9991E+00  1.2500E+00  5.4000E+01

           1    1.14015E-01     2.7474E-08 -1.5637E-01 -1.8708E-11  1.5637E-01
global system                  -5.9605E-08 -2.8155E-09  4.4410E-07  4.4809E-07
                                1.8240E-06  9.9990E+00  1.2500E+00  5.4000E+01

           1    1.16021E-01     2.3894E-08 -1.6409E-01  8.5107E-10  1.6409E-01
global system                   8.9407E-08 -1.3594E-08  8.4991E-07  8.5470E-07
                                1.6821E-06  9.9990E+00  1.2500E+00  5.4000E+01

           1    1.18027E-01     2.3865E-08 -1.7184E-01 -5.3739E-10  1.7184E-01
global system                   1.4901E-08  4.5777E-09  2.4464E-07  2.4514E-07
                                4.0571E-07  9.9989E+00  1.2500E+00  5.4000E+01

           1    1.20033E-01     2.4505E-08 -1.8044E-01 -2.0939E-10  1.8044E-01
global system                   7.4506E-08  1.0536E-08  7.7464E-08  1.0799E-07
                                6.9225E-07  9.9989E+00  1.2500E+00  5.4000E+01

           1    1.22039E-01     3.3004E-08 -1.8939E-01 -2.1151E-10  1.8939E-01
global system                   5.9605E-08 -6.7973E-09  1.8295E-07  1.9253E-07
                               -1.0157E-06  9.9988E+00  1.2500E+00  5.4000E+01

           1    1.24045E-01     2.1188E-08 -1.9877E-01 -1.2335E-09  1.9877E-01
global system                   1.4901E-08 -1.1938E-08 -6.3551E-08  6.6357E-08
                                9.2065E-08  9.9988E+00  1.2500E+00  5.4000E+01

           1    1.26051E-01     2.5320E-08 -2.0856E-01  2.9401E-10  2.0856E-01
global system                  -2.9802E-08 -2.8841E-08  9.3045E-08  1.0187E-07
                               -1.2165E-06  9.9987E+00  1.2500E+00  5.4000E+01

           1    1.28057E-01     4.0687E-08 -2.1805E-01 -9.9911E-10  2.1805E-01
global system                  -5.9605E-08  2.6253E-08 -1.7312E-08  6.7392E-08
                               -8.0350E-07  9.9987E+00  1.2500E+00  5.4000E+01

           1    1.30064E-01     3.7428E-08 -2.2764E-01  1.7019E-09  2.2764E-01
global system                   1.1921E-07 -9.5512E-09  6.8670E-07  6.9704E-07
                               -3.8047E-07  9.9986E+00  1.2500E+00  5.4000E+01

           1    1.32070E-01     4.8021E-08 -2.3770E-01 -3.1926E-10  2.3770E-01
global system                   2.0862E-07 -2.0822E-09 -1.7472E-09  2.0863E-07
                                2.5333E-07  9.9986E+00  1.2500E+00  5.4000E+01

           1    1.34076E-01     2.6193E-08 -2.4777E-01  9.4622E-10  2.4777E-01
global system                   1.7881E-07  3.4425E-08  4.6530E-07  4.9966E-07
                               -2.4486E-07  9.9986E+00  1.2500E+00  5.4000E+01

           1    1.36082E-01     2.4796E-08 -2.5819E-01  6.8794E-10  2.5819E-01
global system                   5.9605E-08  5.5285E-09  7.1977E-07  7.2225E-07
                                1.4795E-06  9.9985E+00  1.2500E+00  5.4000E+01

           1    1.38004E-01     5.3667E-08 -2.6881E-01  1.0304E-09  2.6881E-01
global system                   2.0862E-07  1.4616E-08  3.5490E-07  4.1193E-07
                               -3.0778E-07  9.9984E+00  1.2500E+00  5.4000E+01

           1    1.40011E-01     4.8429E-08 -2.8104E-01  2.0287E-09  2.8104E-01
global system                   2.6822E-07  2.1254E-08  5.5726E-07  6.1882E-07
                                1.7028E-07  9.9984E+00  1.2500E+00  5.4000E+01

           1    1.42017E-01     7.0781E-08 -2.9434E-01 -1.7869E-10  2.9434E-01
global system                  -2.9802E-08  1.9268E-09 -4.6895E-07  4.6990E-07
                               -1.1588E-07  9.9983E+00  1.2500E+00  5.4000E+01

           1    1.44023E-01     1.1059E-07 -3.0921E-01  7.9243E-10  3.0921E-01
global system                   5.9605E-08  7.8833E-09  1.1690E-06  1.1705E-06
                                9.1728E-07  9.9982E+00  1.2500E+00  5.4000E+01

           1    1.46029E-01     7.7300E-08 -3.2464E-01  1.1572E-09  3.2464E-01
global system                  -2.9802E-08 -1.9528E-08  4.4298E-07  4.4441E-07
                               -5.2091E-07  9.9981E+00  1.2500E+00  5.4000E+01

           1    1.48035E-01     7.7183E-08 -3.4042E-01  4.9039E-11  3.4042E-01
global system                   1.1921E-07  1.4840E-08  9.1187E-07  9.1975E-07
                                3.6330E-07  9.9980E+00  1.2500E+00  5.3999E+01

           1    1.50041E-01     6.1002E-08 -3.5659E-01 -7.9315E-11  3.5659E-01
global system                  -2.9802E-08  2.5369E-08  2.3289E-07  2.3615E-07
                               -6.7024E-07  9.9979E+00  1.2500E+00  5.3999E+01

           1    1.52047E-01     1.1106E-07 -3.7302E-01  3.6046E-09  3.7302E-01
global system                   8.9407E-08 -8.0673E-08  1.1809E-06  1.1870E-06
                               -1.8053E-07  9.9978E+00  1.2500E+00  5.3999E+01

           1    1.54053E-01     9.5810E-08 -3.8978E-01  5.5282E-10  3.8978E-01
global system                   0.0000E+00 -2.9941E-08  6.0631E-07  6.0705E-07
                               -7.0836E-07  9.9977E+00  1.2500E+00  5.3999E+01

           1    1.56060E-01     1.1886E-07 -4.0670E-01 -3.6697E-09  4.0670E-01
global system                  -5.9605E-08  3.7098E-09  1.7098E-06  1.7108E-06
                                3.3325E-07  9.9976E+00  1.2500E+00  5.3999E+01

           1    1.58066E-01     1.0116E-07 -4.2398E-01  2.8460E-09  4.2398E-01
global system                   5.9605E-08 -2.9446E-08  1.1652E-06  1.1670E-06
                                2.7989E-07  9.9975E+00  1.2500E+00  5.3999E+01

           1    1.60072E-01     1.2363E-07 -4.4222E-01 -2.3446E-10  4.4222E-01
global system                  -1.1921E-07  3.2478E-08  8.1062E-07  8.1999E-07
                                1.3668E-07  9.9973E+00  1.2500E+00  5.3999E+01

           1    1.62078E-01     1.4273E-07 -4.6165E-01  2.7737E-09  4.6165E-01
global system                   1.7881E-07  1.9269E-08  1.2696E-06  1.2822E-06
                               -4.6285E-07  9.9972E+00  1.2500E+00  5.3999E+01

           1    1.64000E-01     1.7241E-07 -4.8094E-01 -4.4095E-10  4.8094E-01
global system                   1.1921E-07  5.5551E-08  2.6807E-07  2.9859E-07
                               -3.3066E-07  9.9971E+00  1.2500E+00  5.3999E+01

           1    1.66007E-01     1.5972E-07 -5.0099E-01  4.9451E-09  5.0099E-01
global system                  -1.1921E-07  7.8720E-09  2.0652E-06  2.0687E-06
                                7.7411E-07  9.9969E+00  1.2500E+00  5.3999E+01

           1    1.68013E-01     1.9593E-07 -5.2078E-01  4.5974E-10  5.2078E-01
global system                   1.1921E-07 -9.9587E-09  1.8132E-06  1.8172E-06
                                8.2362E-07  9.9968E+00  1.2500E+00  5.3999E+01

           1    1.70019E-01     2.1467E-07 -5.4007E-01  1.3005E-09  5.4007E-01
global system                   1.7881E-07 -1.3313E-08  2.1492E-06  2.1566E-06
                                1.3695E-07  9.9967E+00  1.2500E+00  5.3999E+01

           1    1.72025E-01     1.7206E-07 -5.5984E-01 -3.7586E-09  5.5984E-01
global system                  -1.1921E-07 -2.2614E-08  7.8137E-07  7.9074E-07
                               -1.0904E-06  9.9965E+00  1.2500E+00  5.3999E+01

           1    1.74031E-01     2.0256E-07 -5.7981E-01 -4.9119E-11  5.7981E-01
global system                   5.9605E-08  2.8169E-08  2.1781E-06  2.1791E-06
                               -1.7380E-07  9.9964E+00  1.2500E+00  5.3999E+01

           1    1.76037E-01     2.4622E-07 -6.0001E-01  2.6946E-09  6.0001E-01
global system                   5.9605E-08  4.9705E-08  2.3537E-06  2.3550E-06
                                7.7914E-07  9.9963E+00  1.2500E+00  5.3999E+01

           1    1.78043E-01     2.3562E-07 -6.2050E-01 -4.2115E-09  6.2050E-01
global system                  -1.1921E-07 -3.1593E-08  2.7796E-06  2.7823E-06
                               -9.2575E-07  9.9962E+00  1.2500E+00  5.3998E+01

           1    1.80049E-01     1.7299E-07 -6.4183E-01  8.0290E-09  6.4183E-01
global system                   0.0000E+00  3.8632E-09  1.2550E-06  1.2550E-06
                               -7.0630E-07  9.9961E+00  1.2500E+00  5.3998E+01

           1    1.82056E-01     2.2072E-07 -6.6369E-01 -5.0036E-10  6.6369E-01
global system                  -4.1723E-07  2.6678E-09  1.6704E-06  1.7217E-06
                               -4.7884E-07  9.9960E+00  1.2500E+00  5.3998E+01

           1    1.84062E-01     2.9942E-07 -6.8670E-01  7.9232E-09  6.8670E-01
global system                  -1.1921E-07  3.3462E-08  2.4203E-06  2.4235E-06
                                5.9636E-07  9.9958E+00  1.2500E+00  5.3998E+01

           1    1.86068E-01     2.9057E-07 -7.1021E-01  3.4576E-09  7.1021E-01
global system                  -2.3842E-07 -3.1198E-08  3.6292E-06  3.6372E-06
                                1.1517E-06  9.9957E+00  1.2500E+00  5.3998E+01

           1    1.88074E-01     2.9360E-07 -7.3364E-01 -3.9964E-09  7.3364E-01
global system                   0.0000E+00  4.0521E-08  2.9281E-06  2.9284E-06
                               -6.7350E-07  9.9956E+00  1.2500E+00  5.3998E+01

           1    1.90080E-01     4.4610E-07 -7.5670E-01 -9.0970E-09  7.5670E-01
global system                   1.7881E-07 -2.5844E-08  2.7023E-06  2.7083E-06
                               -2.4161E-07  9.9955E+00  1.2500E+00  5.3998E+01

           1    1.92003E-01     4.1863E-07 -7.7974E-01 -8.6928E-10  7.7974E-01
global system                   1.7881E-07 -7.6470E-08  3.1111E-06  3.1171E-06
                               -7.8600E-07  9.9954E+00  1.2500E+00  5.3998E+01

           1    1.94009E-01     3.2340E-07 -8.0406E-01 -2.4644E-09  8.0406E-01
global system                   0.0000E+00  2.9609E-08  4.2386E-06  4.2387E-06
                               -3.6139E-07  9.9952E+00  1.2500E+00  5.3998E+01

           1    1.96015E-01     2.8242E-07 -8.3006E-01 -8.3842E-09  8.3006E-01
global system                   2.3842E-07  1.5832E-07  3.9721E-06  3.9824E-06
                               -9.8507E-09  9.9951E+00  1.2500E+00  5.3998E+01

           1    1.98021E-01     4.9244E-07 -8.5749E-01 -3.9307E-09  8.5749E-01
global system                  -2.3842E-07 -5.6089E-08  4.4554E-06  4.4622E-06
                               -1.0397E-06  9.9949E+00  1.2500E+00  5.3998E+01

           1    2.00027E-01     6.1258E-07 -8.8748E-01 -4.3343E-09  8.8748E-01
global system                   0.0000E+00 -4.2971E-09  2.6226E-06  2.6226E-06
                                4.5729E-07  9.9948E+00  1.2500E+00  5.3998E+01

           1    2.02033E-01     5.6368E-07 -9.1942E-01  6.2273E-09  9.1942E-01
global system                  -2.3842E-07  9.8915E-08  5.7646E-06  5.7704E-06
                                1.1407E-06  9.9946E+00  1.2500E+00  5.3997E+01

           1    2.04039E-01     5.5414E-07 -9.5442E-01  2.6318E-09  9.5442E-01
global system                   2.3842E-07  4.5924E-08  5.2708E-06  5.2764E-06
                                8.8013E-07  9.9944E+00  1.2500E+00  5.3997E+01

           1    2.06045E-01     6.2585E-07 -9.9058E-01  2.5624E-09  9.9058E-01
global system                  -2.3842E-07  6.5941E-08  6.5315E-06  6.5361E-06
                               -2.8919E-07  9.9942E+00  1.2500E+00  5.3997E+01

           1    2.08052E-01     7.2084E-07 -1.0279E+00  3.4160E-11  1.0279E+00
global system                   5.9605E-07  3.8040E-08  6.7141E-06  6.7406E-06
                                1.1824E-06  9.9940E+00  1.2500E+00  5.3997E+01

           1    2.10058E-01     7.8464E-07 -1.0655E+00 -7.0530E-09  1.0655E+00
global system                   0.0000E+00 -1.8325E-07  4.7512E-06  4.7547E-06
                               -8.5429E-07  9.9937E+00  1.2500E+00  5.3997E+01

           1    2.12064E-01     7.5740E-07 -1.1032E+00  1.1941E-08  1.1032E+00
global system                   3.5763E-07  1.6555E-08  8.7298E-06  8.7372E-06
                                1.1460E-06  9.9935E+00  1.2500E+00  5.3997E+01

           1    2.14070E-01     6.5356E-07 -1.1409E+00  6.2993E-09  1.1409E+00
global system                   1.1921E-07  1.1214E-07  6.1562E-06  6.1584E-06
                                1.1684E-06  9.9932E+00  1.2500E+00  5.3997E+01

           1    2.16076E-01     7.9488E-07 -1.1794E+00  7.7426E-09  1.1794E+00
global system                  -7.1526E-07 -2.5326E-08  1.0954E-05  1.0978E-05
                                7.4907E-07  9.9930E+00  1.2500E+00  5.3997E+01

           1    2.18082E-01     8.3493E-07 -1.2187E+00  5.0513E-09  1.2187E+00
global system                   1.1921E-07  7.1998E-10  7.9962E-06  7.9971E-06
                                3.3202E-07  9.9927E+00  1.2500E+00  5.3997E+01

           1    2.20005E-01     1.0272E-06 -1.2583E+00  8.0799E-09  1.2583E+00
global system                  -2.3842E-07  3.5716E-08  7.8733E-06  7.8769E-06
                                2.0093E-07  9.9924E+00  1.2500E+00  5.3996E+01

           1    2.22011E-01     1.1621E-06 -1.3008E+00  8.2714E-09  1.3008E+00
global system                   0.0000E+00  3.6323E-08  1.1468E-05  1.1468E-05
                                1.2838E-06  9.9921E+00  1.2500E+00  5.3996E+01

           1    2.24017E-01     1.1646E-06 -1.3443E+00 -1.0888E-08  1.3443E+00
global system                   2.3842E-07  1.4985E-07  7.7233E-06  7.7284E-06
                               -3.8070E-07  9.9918E+00  1.2500E+00  5.3996E+01

           1    2.26023E-01     1.0026E-06 -1.3878E+00 -6.5367E-09  1.3878E+00
global system                   3.5763E-07 -2.1171E-08  9.4551E-06  9.4619E-06
                               -9.3043E-07  9.9915E+00  1.2500E+00  5.3996E+01

           1    2.28029E-01     1.3565E-06 -1.4315E+00 -5.0566E-09  1.4315E+00
global system                   3.5763E-07 -1.2320E-08  1.2457E-05  1.2463E-05
                               -6.2831E-07  9.9912E+00  1.2500E+00  5.3996E+01

           1    2.30035E-01     1.2442E-06 -1.4741E+00  9.3241E-09  1.4741E+00
global system                  -1.3113E-06  2.3228E-07  1.2183E-05  1.2255E-05
                               -1.9933E-07  9.9910E+00  1.2500E+00  5.3996E+01

           1    2.32041E-01     1.3532E-06 -1.5180E+00 -6.5963E-09  1.5180E+00
global system                  -1.1921E-07  1.1705E-07  1.0683E-05  1.0684E-05
                                3.2032E-07  9.9907E+00  1.2500E+00  5.3996E+01

           1    2.34048E-01     1.3746E-06 -1.5619E+00  1.0306E-08  1.5619E+00
global system                   5.9605E-07 -1.4251E-07  1.3861E-05  1.3875E-05
                                1.8295E-07  9.9904E+00  1.2500E+00  5.3996E+01

           1    2.36054E-01     1.3700E-06 -1.6064E+00 -5.0186E-09  1.6064E+00
global system                   0.0000E+00  1.1261E-07  1.1617E-05  1.1618E-05
                               -8.0822E-07  9.9901E+00  1.2500E+00  5.3995E+01

           1    2.38060E-01     1.4533E-06 -1.6525E+00  2.1689E-09  1.6525E+00
global system                   2.3842E-07 -1.2618E-07  1.3994E-05  1.3996E-05
                               -4.6622E-07  9.9899E+00  1.2500E+00  5.3995E+01

           1    2.40066E-01     1.5493E-06 -1.7006E+00 -8.7661E-09  1.7006E+00
global system                   9.5367E-07  8.2287E-08  1.2001E-05  1.2040E-05
                               -2.6182E-07  9.9896E+00  1.2500E+00  5.3995E+01

           1    2.42072E-01     1.9260E-06 -1.7498E+00  7.4891E-09  1.7498E+00
global system                   0.0000E+00 -1.3515E-07  2.0177E-05  2.0178E-05
                                4.3801E-07  9.9894E+00  1.2500E+00  5.3995E+01

           1    2.44078E-01     1.9334E-06 -1.8007E+00  2.3710E-08  1.8007E+00
global system                  -7.1526E-07 -3.3339E-08  1.7243E-05  1.7258E-05
                                2.3751E-07  9.9891E+00  1.2500E+00  5.3995E+01

           1    2.46001E-01     1.7183E-06 -1.8503E+00 -2.2558E-09  1.8503E+00
global system                  -4.7684E-07  1.0466E-07  1.5519E-05  1.5526E-05
                                5.8096E-07  9.9888E+00  1.2500E+00  5.3995E+01

           1    2.48007E-01     2.1574E-06 -1.9020E+00  1.4509E-08  1.9020E+00
global system                  -1.4305E-06 -1.1652E-08  1.6814E-05  1.6874E-05
                               -1.8423E-07  9.9886E+00  1.2500E+00  5.3995E+01

           1    2.50013E-01     2.3814E-06 -1.9536E+00 -1.6274E-08  1.9536E+00
global system                   7.1526E-07  2.1164E-07  2.0565E-05  2.0578E-05
                                1.4121E-06  9.9883E+00  1.2500E+00  5.3995E+01

           1    2.52019E-01     2.1346E-06 -2.0069E+00  4.0735E-09  2.0069E+00
global system                   2.3842E-07  3.6898E-08  1.8197E-05  1.8199E-05
                                2.4300E-07  9.9880E+00  1.2500E+00  5.3994E+01

           1    2.54025E-01     2.1043E-06 -2.0594E+00  2.9565E-09  2.0594E+00
global system                   0.0000E+00 -5.3976E-08  2.7049E-05  2.7049E-05
                                1.0766E-06  9.9877E+00  1.2500E+00  5.3994E+01

           1    2.56031E-01     2.2962E-06 -2.1127E+00  3.8983E-09  2.1127E+00
global system                  -2.3842E-07  2.9154E-07  2.3224E-05  2.3227E-05
                                2.1057E-07  9.9874E+00  1.2500E+00  5.3994E+01

           1    2.58037E-01     2.4070E-06 -2.1660E+00  1.1162E-08  2.1660E+00
global system                   2.3842E-07  1.9431E-07  2.5921E-05  2.5923E-05
                               -2.7643E-07  9.9871E+00  1.2500E+00  5.3994E+01

           1    2.60044E-01     2.6948E-06 -2.2219E+00 -2.5084E-08  2.2219E+00
global system                  -2.3842E-07  6.3337E-08  2.2619E-05  2.2621E-05
                               -3.2142E-07  9.9867E+00  1.2500E+00  5.3994E+01

           1    2.62050E-01     2.8177E-06 -2.2789E+00  2.3579E-08  2.2789E+00
global system                  -7.1526E-07  6.7434E-09  3.2084E-05  3.2092E-05
                                5.6260E-07  9.9864E+00  1.2500E+00  5.3994E+01

           1    2.64056E-01     3.1637E-06 -2.3388E+00  7.2071E-10  2.3388E+00
global system                   7.1526E-07 -1.1604E-07  3.0424E-05  3.0433E-05
                                8.6204E-07  9.9860E+00  1.2500E+00  5.3994E+01

           1    2.66062E-01     3.7383E-06 -2.3988E+00 -1.2528E-08  2.3988E+00
global system                   7.1526E-07  4.3705E-08  4.1302E-05  4.1309E-05
                                2.2757E-07  9.9856E+00  1.2500E+00  5.3993E+01

           1    2.68068E-01     3.7332E-06 -2.4603E+00 -1.7245E-08  2.4603E+00
global system                   2.3842E-07  2.7062E-09  2.8925E-05  2.8926E-05
                               -9.3480E-07  9.9852E+00  1.2500E+00  5.3993E+01

           1    2.70074E-01     3.4859E-06 -2.5215E+00  2.1635E-08  2.5215E+00
global system                   7.1526E-07  1.5604E-07  2.5378E-05  2.5389E-05
                               -8.2815E-07  9.9848E+00  1.2500E+00  5.3993E+01

           1    2.72080E-01     3.6969E-06 -2.5841E+00  2.2263E-08  2.5841E+00
global system                   9.5367E-07  1.3063E-07  3.3798E-05  3.3811E-05
                               -1.1118E-06  9.9844E+00  1.2500E+00  5.3993E+01

           1    2.74003E-01     3.3625E-06 -2.6448E+00 -1.2376E-08  2.6448E+00
global system                  -2.3842E-07  9.5082E-08  2.5558E-05  2.5559E-05
                               -1.1301E-06  9.9840E+00  1.2500E+00  5.3993E+01

           1    2.76009E-01     3.6666E-06 -2.7090E+00  7.6752E-10  2.7090E+00
global system                   4.7684E-07  3.0505E-07  4.0875E-05  4.0879E-05
                               -9.7929E-07  9.9835E+00  1.2500E+00  5.3993E+01

           1    2.78015E-01     4.3046E-06 -2.7739E+00  1.2425E-08  2.7739E+00
global system                  -1.4305E-06 -1.6505E-07  3.9506E-05  3.9533E-05
                                5.2769E-08  9.9831E+00  1.2500E+00  5.3992E+01

           1    2.80021E-01     4.0950E-06 -2.8411E+00 -1.4651E-09  2.8411E+00
global system                  -1.6689E-06 -1.4605E-07  3.5370E-05  3.5410E-05
                               -8.4235E-07  9.9827E+00  1.2500E+00  5.3992E+01

           1    2.82027E-01     4.6706E-06 -2.9101E+00  3.5690E-09  2.9101E+00
global system                  -1.9073E-06  9.3941E-08  4.9439E-05  4.9476E-05
                               -6.2806E-07  9.9823E+00  1.2500E+00  5.3992E+01

           1    2.84033E-01     4.7330E-06 -2.9822E+00  7.1262E-09  2.9822E+00
global system                   1.9073E-06 -2.8304E-07  4.2045E-05  4.2089E-05
                                7.9905E-07  9.9818E+00  1.2500E+00  5.3992E+01

           1    2.86040E-01     5.0478E-06 -3.0525E+00  2.0307E-08  3.0525E+00
global system                  -2.3842E-07  1.6923E-07  5.7808E-05  5.7809E-05
                               -1.3344E-07  9.9814E+00  1.2500E+00  5.3992E+01

           1    2.88046E-01     5.0087E-06 -3.1230E+00 -2.5711E-09  3.1230E+00
global system                   2.3842E-07  2.8762E-07  4.9640E-05  4.9642E-05
                                3.0217E-07  9.9810E+00  1.2500E+00  5.3991E+01

           1    2.90052E-01     5.4063E-06 -3.1917E+00  1.4554E-08  3.1917E+00
global system                  -2.3842E-07  7.4487E-08  5.1793E-05  5.1794E-05
                                1.2123E-06  9.9806E+00  1.2500E+00  5.3991E+01

           1    2.92058E-01     5.2368E-06 -3.2605E+00 -1.9837E-08  3.2605E+00
global system                  -4.7684E-07 -1.1799E-07  4.4545E-05  4.4548E-05
                                1.2120E-07  9.9802E+00  1.2500E+00  5.3991E+01

           1    2.94064E-01     5.2927E-06 -3.3298E+00  4.3147E-10  3.3298E+00
global system                   0.0000E+00  1.1735E-07  5.4293E-05  5.4293E-05
                               -1.1647E-06  9.9798E+00  1.2500E+00  5.3991E+01

           1    2.96070E-01     5.7677E-06 -3.3994E+00  1.3549E-08  3.3994E+00
global system                  -1.9073E-06 -2.1347E-08  4.9951E-05  4.9988E-05
                               -1.6095E-06  9.9794E+00  1.2500E+00  5.3991E+01

           1    2.98076E-01     5.6345E-06 -3.4689E+00  1.2891E-08  3.4689E+00
global system                  -1.9073E-06  2.4767E-07  7.6061E-05  7.6085E-05
                                1.3632E-06  9.9790E+00  1.2500E+00  5.3990E+01

           1    3.00082E-01     6.6338E-06 -3.5384E+00  1.5099E-08  3.5384E+00
global system                   4.7684E-07 -2.9425E-07  5.6505E-05  5.6508E-05
                               -2.8788E-07  9.9786E+00  1.2500E+00  5.3990E+01

           1    3.02005E-01     6.3488E-06 -3.6076E+00 -3.7333E-08  3.6076E+00
global system                   4.7684E-07 -1.7661E-07  7.6335E-05  7.6337E-05
                                2.2245E-07  9.9782E+00  1.2500E+00  5.3990E+01

           1    3.04011E-01     7.6545E-06 -3.6815E+00  1.5401E-08  3.6815E+00
global system                  -4.7684E-07 -5.1461E-08  5.5731E-05  5.5733E-05
                               -4.2165E-07  9.9777E+00  1.2500E+00  5.3990E+01

           1    3.06017E-01     7.6490E-06 -3.7564E+00  4.3068E-08  3.7564E+00
global system                   0.0000E+00 -1.1108E-07  7.8263E-05  7.8263E-05
                               -8.1356E-08  9.9773E+00  1.2500E+00  5.3990E+01

           1    3.08023E-01     7.3835E-06 -3.8324E+00  3.0721E-08  3.8324E+00
global system                   1.4305E-06 -5.2311E-08  7.2616E-05  7.2630E-05
                               -6.1542E-07  9.9769E+00  1.2500E+00  5.3989E+01

           1    3.10029E-01     8.2254E-06 -3.9061E+00  3.9831E-08  3.9061E+00
global system                   3.8147E-06 -6.0047E-08  6.5923E-05  6.6033E-05
                               -2.6134E-07  9.9764E+00  1.2500E+00  5.3989E+01

           1    3.12036E-01     8.2124E-06 -3.9834E+00 -4.2734E-08  3.9834E+00
global system                  -9.5367E-07  5.5985E-08  8.4929E-05  8.4934E-05
                                8.2087E-07  9.9760E+00  1.2500E+00  5.3989E+01

           1    3.14042E-01     8.3037E-06 -4.0617E+00  5.1713E-08  4.0617E+00
global system                  -1.4305E-06  2.1429E-07  8.6357E-05  8.6369E-05
                                3.3539E-07  9.9755E+00  1.2500E+00  5.3989E+01

           1    3.16048E-01     9.1624E-06 -4.1417E+00  9.8568E-09  4.1417E+00
global system                  -9.5367E-07  2.1472E-07  7.7462E-05  7.7468E-05
                                3.4298E-07  9.9750E+00  1.2500E+00  5.3989E+01

           1    3.18054E-01     8.1277E-06 -4.2221E+00 -2.4824E-08  4.2221E+00
global system                   9.5367E-07 -2.7569E-07  8.9344E-05  8.9350E-05
                               -6.1519E-08  9.9745E+00  1.2500E+00  5.3988E+01

           1    3.20060E-01     1.0087E-05 -4.3033E+00 -1.0628E-08  4.3033E+00
global system                   0.0000E+00  4.4755E-08  9.0986E-05  9.0986E-05
                                1.0617E-07  9.9740E+00  1.2500E+00  5.3988E+01

           1    3.22066E-01     9.5321E-06 -4.3854E+00  2.0850E-08  4.3854E+00
global system                  -1.4305E-06 -2.9568E-07  1.0089E-04  1.0090E-04
                               -9.1123E-08  9.9735E+00  1.2500E+00  5.3988E+01

           1    3.24072E-01     1.0462E-05 -4.4697E+00  3.4793E-08  4.4697E+00
global system                  -4.7684E-07 -2.0984E-07  9.0559E-05  9.0560E-05
                                3.2543E-07  9.9730E+00  1.2500E+00  5.3988E+01

           1    3.26078E-01     1.1293E-05 -4.5561E+00 -7.0772E-08  4.5561E+00
global system                   4.7684E-07 -2.2073E-07  1.0270E-04  1.0270E-04
                               -1.0128E-06  9.9724E+00  1.2500E+00  5.3987E+01

           1    3.28001E-01     1.1145E-05 -4.6383E+00 -1.3903E-08  4.6383E+00
global system                  -1.4305E-06  3.0363E-07  1.0721E-04  1.0722E-04
                                3.5998E-08  9.9719E+00  1.2500E+00  5.3987E+01

           1    3.30007E-01     1.0772E-05 -4.7221E+00  4.4665E-08  4.7221E+00
global system                   4.7684E-07  4.9124E-07  1.1531E-04  1.1531E-04
                                7.6444E-07  9.9714E+00  1.2500E+00  5.3987E+01

           1    3.32013E-01     1.1725E-05 -4.8062E+00 -3.9905E-08  4.8062E+00
global system                   9.5367E-07 -6.5364E-08  1.2759E-04  1.2759E-04
                                5.9008E-07  9.9708E+00  1.2500E+00  5.3987E+01

           1    3.34019E-01     1.2727E-05 -4.8894E+00 -2.7634E-08  4.8894E+00
global system                   1.9073E-06 -1.2947E-07  1.0653E-04  1.0654E-04
                               -2.0052E-06  9.9703E+00  1.2500E+00  5.3986E+01

           1    3.36025E-01     1.1958E-05 -4.9752E+00  1.7949E-08  4.9752E+00
global system                  -1.9073E-06  2.1068E-07  1.3602E-04  1.3603E-04
                               -1.9139E-07  9.9697E+00  1.2500E+00  5.3986E+01

           1    3.38031E-01     1.2507E-05 -5.0601E+00 -4.3447E-08  5.0601E+00
global system                   1.4305E-06  1.3046E-07  1.4324E-04  1.4325E-04
                                8.0782E-07  9.9692E+00  1.2500E+00  5.3986E+01

           1    3.40038E-01     1.2495E-05 -5.1457E+00 -2.2066E-08  5.1457E+00
global system                   2.3842E-06  1.2656E-07  1.2072E-04  1.2075E-04
                               -1.3888E-07  9.9686E+00  1.2500E+00  5.3986E+01

           1    3.42044E-01     1.2966E-05 -5.2311E+00 -2.7833E-08  5.2311E+00
global system                   4.7684E-07 -5.9380E-07  1.4616E-04  1.4616E-04
                                4.8665E-07  9.9681E+00  1.2500E+00  5.3985E+01

           1    3.44050E-01     1.5761E-05 -5.3192E+00  2.7797E-08  5.3192E+00
global system                  -4.7684E-07  3.0212E-07  1.3394E-04  1.3395E-04
                               -8.7435E-07  9.9676E+00  1.2500E+00  5.3985E+01

           1    3.46056E-01     1.4681E-05 -5.4085E+00  2.2062E-08  5.4085E+00
global system                  -1.4305E-06 -4.0218E-07  1.6077E-04  1.6077E-04
                                1.6192E-07  9.9671E+00  1.2500E+00  5.3985E+01

           1    3.48062E-01     1.6542E-05 -5.4986E+00 -5.3290E-08  5.4986E+00
global system                  -3.3379E-06 -1.0254E-06  1.4445E-04  1.4449E-04
                               -1.9774E-07  9.9665E+00  1.2500E+00  5.3985E+01

           1    3.50068E-01     1.6693E-05 -5.5872E+00  2.1780E-08  5.5872E+00
global system                   0.0000E+00 -5.1738E-07  1.5306E-04  1.5306E-04
                               -5.0256E-07  9.9660E+00  1.2500E+00  5.3984E+01

           1    3.52074E-01     1.5328E-05 -5.6751E+00  8.6685E-10  5.6751E+00
global system                  -3.3379E-06  6.4213E-07  1.6380E-04  1.6383E-04
                                6.9812E-07  9.9655E+00  1.2500E+00  5.3984E+01

           1    3.54080E-01     1.5911E-05 -5.7639E+00  3.7718E-09  5.7639E+00
global system                   1.9073E-06  3.7592E-07  1.8507E-04  1.8508E-04
                                3.2585E-07  9.9650E+00  1.2500E+00  5.3984E+01

           1    3.56003E-01     1.6412E-05 -5.8510E+00  4.8398E-09  5.8510E+00
global system                   4.2915E-06 -6.1509E-07  1.5564E-04  1.5570E-04
                                2.4326E-07  9.9645E+00  1.2500E+00  5.3984E+01

           1    3.58009E-01     1.7576E-05 -5.9426E+00 -3.6557E-08  5.9426E+00
global system                  -1.4305E-06 -2.1334E-07  1.8892E-04  1.8892E-04
                                1.2136E-07  9.9640E+00  1.2500E+00  5.3983E+01

           1    3.60015E-01     1.8904E-05 -6.0355E+00  4.9157E-08  6.0355E+00
global system                  -3.3379E-06  5.8786E-08  1.9266E-04  1.9269E-04
                                6.8839E-07  9.9635E+00  1.2500E+00  5.3983E+01

           1    3.62021E-01     1.8783E-05 -6.1283E+00  2.0698E-08  6.1283E+00
global system                   4.7684E-07 -2.7270E-07  1.8635E-04  1.8635E-04
                               -6.5953E-07  9.9629E+00  1.2500E+00  5.3983E+01

           1    3.64027E-01     1.9902E-05 -6.2223E+00  2.5889E-08  6.2223E+00
global system                   3.3379E-06  4.5266E-07  1.8195E-04  1.8198E-04
                               -2.9062E-07  9.9624E+00  1.2500E+00  5.3983E+01

           1    3.66034E-01     2.1200E-05 -6.3175E+00  2.9039E-08  6.3175E+00
global system                  -4.2915E-06  5.1868E-07  1.9137E-04  1.9141E-04
                               -3.3599E-07  9.9618E+00  1.2500E+00  5.3982E+01

           1    3.68040E-01     1.9845E-05 -6.4147E+00  6.9930E-10  6.4147E+00
global system                  -3.8147E-06 -9.1937E-08  2.0529E-04  2.0533E-04
                               -6.9903E-07  9.9613E+00  1.2500E+00  5.3982E+01

           1    3.70046E-01     2.2424E-05 -6.5100E+00  8.1091E-08  6.5100E+00
global system                  -5.7220E-06 -8.8711E-07  2.1463E-04  2.1471E-04
                                3.8900E-08  9.9607E+00  1.2500E+00  5.3982E+01

           1    3.72052E-01     2.3007E-05 -6.6049E+00 -1.9967E-08  6.6049E+00
global system                  -3.8147E-06  5.7563E-07  1.9539E-04  1.9543E-04
                               -9.1714E-07  9.9601E+00  1.2500E+00  5.3981E+01

           1    3.74058E-01     2.1705E-05 -6.7005E+00 -8.9730E-09  6.7005E+00
global system                   2.8610E-06 -9.1542E-08  2.1638E-04  2.1640E-04
                               -1.0216E-06  9.9595E+00  1.2500E+00  5.3981E+01

           1    3.76064E-01     2.2704E-05 -6.7970E+00  1.9086E-08  6.7970E+00
global system                   0.0000E+00 -7.9163E-07  2.2876E-04  2.2876E-04
                               -2.8650E-07  9.9588E+00  1.2500E+00  5.3981E+01

           1    3.78070E-01     2.3050E-05 -6.8938E+00 -3.5696E-08  6.8938E+00
global system                   2.8610E-06  4.4435E-07  2.4663E-04  2.4664E-04
                               -3.0988E-07  9.9582E+00  1.2500E+00  5.3981E+01

           1    3.80076E-01     2.4175E-05 -6.9906E+00  1.4775E-08  6.9906E+00
global system                   9.5367E-07  2.6225E-07  2.3937E-04  2.3937E-04
                                2.1967E-07  9.9576E+00  1.2500E+00  5.3980E+01

           1    3.82083E-01     2.5108E-05 -7.0869E+00  4.9304E-08  7.0869E+00
global system                  -2.8610E-06 -1.7928E-07  2.7190E-04  2.7191E-04
                                9.5445E-07  9.9569E+00  1.2500E+00  5.3980E+01

           1    3.84005E-01     2.6509E-05 -7.1795E+00  4.4537E-08  7.1795E+00
global system                   0.0000E+00 -5.7106E-07  2.4401E-04  2.4401E-04
                                1.6552E-07  9.9563E+00  1.2500E+00  5.3980E+01

           1    3.86011E-01     2.6591E-05 -7.2779E+00 -5.1629E-09  7.2779E+00
global system                   0.0000E+00 -8.0888E-07  2.7874E-04  2.7874E-04
                                1.1145E-06  9.9557E+00  1.2500E+00  5.3980E+01

           1    3.88017E-01     2.7768E-05 -7.3780E+00  4.6827E-08  7.3780E+00
global system                   9.5367E-07 -7.6761E-08  2.2964E-04  2.2964E-04
                                1.1113E-07  9.9550E+00  1.2500E+00  5.3979E+01

           1    3.90023E-01     2.7357E-05 -7.4780E+00 -5.0847E-08  7.4780E+00
global system                  -1.9073E-06 -7.8494E-07  2.6529E-04  2.6530E-04
                               -1.0531E-06  9.9544E+00  1.2500E+00  5.3979E+01

           1    3.92030E-01     2.7668E-05 -7.5770E+00  2.6049E-08  7.5770E+00
global system                  -9.5367E-07 -2.0419E-07  2.6911E-04  2.6911E-04
                               -2.1215E-07  9.9538E+00  1.2500E+00  5.3979E+01

           1    3.94036E-01     2.9625E-05 -7.6753E+00  4.8129E-08  7.6753E+00
global system                   9.5367E-07  3.2534E-07  2.9538E-04  2.9539E-04
                                5.2894E-07  9.9532E+00  1.2500E+00  5.3978E+01

           1    3.96042E-01     2.9735E-05 -7.7744E+00 -1.6828E-09  7.7744E+00
global system                   3.8147E-06  5.7272E-07  2.6643E-04  2.6646E-04
                               -1.5544E-06  9.9526E+00  1.2500E+00  5.3978E+01

           1    3.98048E-01     3.0736E-05 -7.8735E+00 -4.9372E-08  7.8735E+00
global system                  -1.9073E-06 -2.7224E-07  2.9946E-04  2.9946E-04
                               -9.6990E-07  9.9520E+00  1.2500E+00  5.3978E+01

           1    4.00054E-01     2.8865E-05 -7.9738E+00 -2.2743E-08  7.9738E+00
global system                  -1.9073E-06  6.0250E-07  3.1360E-04  3.1361E-04
                                4.3413E-07  9.9515E+00  1.2500E+00  5.3978E+01

           1    4.02060E-01     3.0225E-05 -8.0724E+00  7.5888E-08  8.0724E+00
global system                   2.8610E-06 -7.4669E-07  3.1513E-04  3.1515E-04
                               -7.9351E-07  9.9509E+00  1.2500E+00  5.3977E+01

           1    4.04066E-01     3.4111E-05 -8.1722E+00 -3.5731E-08  8.1722E+00
global system                   6.6757E-06 -2.0581E-06  3.2225E-04  3.2233E-04
                               -4.1728E-07  9.9503E+00  1.2500E+00  5.3977E+01

           1    4.06072E-01     3.5012E-05 -8.2731E+00  1.0750E-07  8.2731E+00
global system                   9.5367E-07 -3.3871E-07  3.2652E-04  3.2652E-04
                               -8.9795E-07  9.9498E+00  1.2500E+00  5.3977E+01

           1    4.08079E-01     3.4571E-05 -8.3745E+00  1.4981E-07  8.3745E+00
global system                   0.0000E+00 -2.0261E-07  3.3463E-04  3.3463E-04
                                4.0948E-07  9.9492E+00  1.2500E+00  5.3976E+01

           1    4.10001E-01     3.6856E-05 -8.4705E+00 -2.1107E-08  8.4705E+00
global system                  -1.9073E-06 -7.2137E-07  3.4728E-04  3.4728E-04
                                5.7116E-07  9.9487E+00  1.2500E+00  5.3976E+01

           1    4.12007E-01     3.4824E-05 -8.5695E+00  3.5273E-08  8.5695E+00
global system                  -9.5367E-07 -2.2278E-07  3.3063E-04  3.3063E-04
                               -1.0383E-07  9.9481E+00  1.2500E+00  5.3976E+01

           1    4.14013E-01     3.5554E-05 -8.6676E+00  6.0947E-08  8.6676E+00
global system                  -2.8610E-06  4.8016E-07  4.0126E-04  4.0127E-04
                               -4.3070E-07  9.9475E+00  1.2500E+00  5.3976E+01

           1    4.16019E-01     3.7441E-05 -8.7661E+00  2.1673E-08  8.7661E+00
global system                   9.5367E-07  1.1998E-06  3.5301E-04  3.5301E-04
                               -4.8266E-07  9.9469E+00  1.2500E+00  5.3975E+01

           1    4.18026E-01     4.0550E-05 -8.8658E+00 -4.0067E-08  8.8658E+00
global system                   8.5831E-06 -4.7600E-07  3.9034E-04  3.9043E-04
                               -1.2024E-06  9.9463E+00  1.2500E+00  5.3975E+01

           1    4.20032E-01     3.9401E-05 -8.9677E+00 -8.8119E-08  8.9677E+00
global system                  -9.5367E-07 -2.8962E-08  3.8378E-04  3.8378E-04
                               -1.2615E-06  9.9457E+00  1.2500E+00  5.3975E+01

           1    4.22038E-01     3.8169E-05 -9.0704E+00  6.5733E-08  9.0704E+00
global system                   1.9073E-06 -9.8473E-07  3.9947E-04  3.9947E-04
                                5.2153E-07  9.9451E+00  1.2500E+00  5.3974E+01

           1    4.24044E-01     4.1416E-05 -9.1737E+00 -5.1578E-08  9.1737E+00
global system                   6.6757E-06  5.0731E-07  4.2472E-04  4.2477E-04
                                1.3181E-07  9.9444E+00  1.2500E+00  5.3974E+01

           1    4.26050E-01     4.3839E-05 -9.2773E+00  9.2364E-08  9.2773E+00
global system                   8.5831E-06  3.2150E-07  3.9827E-04  3.9836E-04
                               -3.7785E-07  9.9438E+00  1.2500E+00  5.3974E+01

           1    4.28056E-01     4.4063E-05 -9.3843E+00 -5.0025E-09  9.3843E+00
global system                   9.5367E-07  8.8355E-07  4.3546E-04  4.3546E-04
                               -1.0582E-06  9.9431E+00  1.2500E+00  5.3974E+01

           1    4.30062E-01     4.7302E-05 -9.4908E+00 -1.1050E-07  9.4908E+00
global system                  -3.8147E-06  4.7598E-07  4.7083E-04  4.7085E-04
                                1.7534E-06  9.9424E+00  1.2500E+00  5.3973E+01

           1    4.32068E-01     4.7669E-05 -9.5974E+00 -6.4435E-08  9.5974E+00
global system                  -2.8610E-06 -3.6447E-07  4.1260E-04  4.1261E-04
                                1.2385E-06  9.9417E+00  1.2500E+00  5.3973E+01

           1    4.34075E-01     4.6290E-05 -9.7049E+00 -1.0693E-08  9.7049E+00
global system                   1.9073E-06  8.1067E-07  4.5894E-04  4.5894E-04
                                5.5410E-08  9.9411E+00  1.2500E+00  5.3973E+01

           1    4.36081E-01     4.6523E-05 -9.8135E+00 -2.4258E-08  9.8135E+00
global system                  -2.8610E-06  1.1958E-06  4.4184E-04  4.4185E-04
                               -1.6113E-07  9.9404E+00  1.2500E+00  5.3972E+01

           1    4.38003E-01     4.9051E-05 -9.9173E+00  2.6544E-08  9.9173E+00
global system                   9.5367E-07 -6.4698E-07  5.1698E-04  5.1698E-04
                               -6.4971E-07  9.9397E+00  1.2500E+00  5.3972E+01

           1    4.40009E-01     5.0468E-05 -1.0026E+01  1.4275E-07  1.0026E+01
global system                   5.7220E-06  1.7264E-06  4.8511E-04  4.8514E-04
                               -4.6257E-07  9.9390E+00  1.2500E+00  5.3972E+01

           1    4.42015E-01     5.0252E-05 -1.0134E+01  9.3296E-08  1.0134E+01
global system                  -2.8610E-06  5.4292E-07  5.3799E-04  5.3799E-04
                               -2.0747E-06  9.9384E+00  1.2500E+00  5.3971E+01

           1    4.44022E-01     5.0172E-05 -1.0242E+01  7.1418E-08  1.0242E+01
global system                   3.8147E-06 -1.0510E-06  4.8273E-04  4.8275E-04
                               -6.2967E-08  9.9377E+00  1.2500E+00  5.3971E+01

           1    4.46028E-01     5.2879E-05 -1.0349E+01  7.4463E-08  1.0349E+01
global system                   9.5367E-06 -3.3016E-07  5.5250E-04  5.5259E-04
                                3.7568E-07  9.9370E+00  1.2500E+00  5.3971E+01

           1    4.48034E-01     5.2905E-05 -1.0456E+01 -1.6914E-08  1.0456E+01
global system                   3.8147E-06  1.1497E-07  4.8685E-04  4.8686E-04
                               -5.6613E-07  9.9363E+00  1.2500E+00  5.3971E+01

           1    4.50040E-01     5.7923E-05 -1.0563E+01 -1.7150E-07  1.0563E+01
global system                  -1.9073E-06 -8.1398E-07  4.6359E-04  4.6360E-04
                                2.7436E-07  9.9357E+00  1.2500E+00  5.3970E+01

           1    4.52046E-01     6.0312E-05 -1.0668E+01  9.2106E-09  1.0668E+01
global system                  -4.7684E-06 -6.3416E-07  5.2686E-04  5.2688E-04
                               -1.3807E-06  9.9350E+00  1.2500E+00  5.3970E+01

           1    4.54052E-01     4.4201E-05 -1.0772E+01  3.9297E-08  1.0772E+01
global system                  -9.5367E-07 -3.4750E-08  5.1749E-04  5.1749E-04
                               -1.7251E-07  9.9344E+00  1.2500E+00  5.3970E+01

           1    4.56058E-01     4.9245E-05 -1.0877E+01  3.7762E-08  1.0877E+01
global system                   0.0000E+00  1.2277E-06  4.3955E-04  4.3955E-04
                               -1.0446E-06  9.9338E+00  1.2500E+00  5.3969E+01

           1    4.58064E-01     5.1975E-05 -1.0980E+01  2.7629E-08  1.0980E+01
global system                   2.8610E-06  4.7701E-08  5.8787E-04  5.8788E-04
                                1.2536E-07  9.9332E+00  1.2500E+00  5.3969E+01

           1    4.60071E-01     5.8360E-05 -1.1085E+01 -1.5607E-07  1.1085E+01
global system                   4.7684E-06 -8.1312E-07  5.7242E-04  5.7244E-04
                               -8.8254E-07  9.9325E+00  1.2500E+00  5.3969E+01

           1    4.62077E-01     5.8781E-05 -1.1188E+01 -1.8575E-07  1.1188E+01
global system                   3.8147E-06 -5.4963E-07  5.6217E-04  5.6218E-04
                                1.3408E-07  9.9319E+00  1.2500E+00  5.3968E+01

           1    4.64083E-01     5.2024E-05 -1.1293E+01 -1.2246E-07  1.1293E+01
global system                  -3.8147E-06 -1.3837E-06  5.6481E-04  5.6483E-04
                               -8.9814E-08  9.9313E+00  1.2500E+00  5.3968E+01

           1    4.66005E-01     7.0933E-05 -1.1396E+01 -7.1024E-08  1.1396E+01
global system                  -2.8610E-06  4.3662E-07  6.0812E-04  6.0812E-04
                               -7.5915E-07  9.9307E+00  1.2500E+00  5.3968E+01

           1    4.68011E-01     5.5637E-05 -1.1504E+01  1.0176E-07  1.1504E+01
global system                  -9.5367E-07  1.0470E-06  6.0649E-04  6.0649E-04
                                3.5965E-07  9.9301E+00  1.2500E+00  5.3968E+01

           1    4.70018E-01     6.9823E-05 -1.1612E+01 -1.7710E-07  1.1612E+01
global system                  -2.8610E-06 -8.1202E-07  7.5051E-04  7.5051E-04
                               -1.1230E-06  9.9295E+00  1.2500E+00  5.3967E+01

           1    4.72024E-01     7.0307E-05 -1.1720E+01 -1.3708E-07  1.1720E+01
global system                   7.6294E-06 -2.4856E-06  7.8280E-04  7.8284E-04
                                9.2445E-08  9.9289E+00  1.2500E+00  5.3967E+01

           1    4.74030E-01     9.4354E-05 -1.1829E+01 -4.2954E-08  1.1829E+01
global system                  -7.6294E-06  3.9982E-06  7.1190E-04  7.1195E-04
                                8.3488E-07  9.9283E+00  1.2500E+00  5.3967E+01

           1    4.76036E-01     7.7453E-05 -1.1935E+01 -1.3641E-07  1.1935E+01
global system                  -1.2398E-05  1.3289E-06  6.8013E-04  6.8024E-04
                               -5.2815E-07  9.9277E+00  1.2500E+00  5.3966E+01

           1    4.78042E-01     9.1553E-05 -1.2044E+01  9.2253E-08  1.2044E+01
global system                   4.7684E-06 -1.8047E-06  9.0803E-04  9.0805E-04
                               -4.0953E-07  9.9270E+00  1.2500E+00  5.3966E+01

           1    4.80048E-01     4.6641E-05 -1.2154E+01  1.5646E-07  1.2154E+01
global system                  -1.9073E-06  1.8978E-06  8.8031E-04  8.8031E-04
                                9.2323E-07  9.9263E+00  1.2500E+00  5.3966E+01

           1    4.82054E-01     7.5590E-05 -1.2265E+01 -4.1777E-08  1.2265E+01
global system                  -1.9073E-06  9.0426E-08  8.2316E-04  8.2316E-04
                                3.3457E-07  9.9257E+00  1.2500E+00  5.3965E+01

           1    4.84060E-01     5.6140E-05 -1.2376E+01  6.1790E-08  1.2376E+01
global system                  -2.8610E-06 -1.2468E-06  7.7744E-04  7.7744E-04
                               -6.9608E-07  9.9250E+00  1.2500E+00  5.3965E+01

           1    4.86067E-01     1.0628E-04 -1.2486E+01 -1.6781E-07  1.2486E+01
global system                  -9.5367E-07 -1.8778E-06  1.0625E-03  1.0625E-03
                                4.1994E-07  9.9243E+00  1.2500E+00  5.3965E+01

           1    4.88073E-01     1.2978E-05 -1.2596E+01  6.4371E-08  1.2596E+01
global system                   1.9073E-06 -1.1462E-06  6.5685E-04  6.5686E-04
                               -1.2234E-06  9.9235E+00  1.2500E+00  5.3964E+01

           1    4.90079E-01     6.4969E-05 -1.2709E+01 -2.0479E-08  1.2709E+01
global system                  -8.5831E-06 -3.5214E-07  7.5174E-04  7.5179E-04
                               -8.1040E-07  9.9228E+00  1.2500E+00  5.3964E+01

           1    4.92001E-01     1.4062E-04 -1.2815E+01 -2.9005E-08  1.2815E+01
global system                   3.8147E-06 -8.0743E-07  7.1650E-04  7.1651E-04
                               -1.4078E-07  9.9221E+00  1.2500E+00  5.3964E+01

           1    4.94007E-01     8.0302E-05 -1.2924E+01  1.0339E-07  1.2924E+01
global system                   0.0000E+00  3.5006E-06  1.2536E-03  1.2536E-03
                                2.0984E-08  9.9214E+00  1.2500E+00  5.3964E+01

           1    4.96014E-01     9.5140E-05 -1.3034E+01 -2.6616E-08  1.3034E+01
global system                   3.8147E-06 -4.9842E-07  7.2492E-04  7.2493E-04
                                2.1082E-07  9.9207E+00  1.2500E+00  5.3963E+01

           1    4.98020E-01     1.2193E-04 -1.3147E+01 -1.2956E-07  1.3147E+01
global system                   3.8147E-06 -5.7821E-07  9.9928E-04  9.9929E-04
                               -4.6407E-08  9.9200E+00  1.2500E+00  5.3963E+01

           1    5.00026E-01     7.1675E-05 -1.3258E+01  1.3157E-07  1.3258E+01
global system                   0.0000E+00  1.5034E-06  4.7054E-04  4.7055E-04
                                3.4804E-07  9.9192E+00  1.2500E+00  5.3963E+01

           1    5.02032E-01     4.4052E-05 -1.3369E+01 -9.3298E-09  1.3369E+01
global system                  -1.9073E-06 -1.6986E-06  4.5185E-04  4.5186E-04
                               -1.0780E-06  9.9186E+00  1.2500E+00  5.3962E+01

           1    5.04038E-01     2.8934E-05 -1.3482E+01 -1.8621E-07  1.3482E+01
global system                   3.8147E-06 -7.1330E-08  1.5063E-03  1.5063E-03
                               -1.8975E-08  9.9179E+00  1.2500E+00  5.3962E+01

           1    5.06044E-01     1.7486E-04 -1.3592E+01 -2.2111E-08  1.3592E+01
global system                  -3.8147E-06  8.6104E-07  8.0353E-04  8.0354E-04
                               -4.1966E-07  9.9172E+00  1.2500E+00  5.3962E+01

           1    5.08050E-01    -2.5999E-05 -1.3705E+01 -1.5468E-07  1.3705E+01
global system                  -3.8147E-06  9.2346E-07  6.0289E-04  6.0290E-04
                               -7.6283E-07  9.9165E+00  1.2500E+00  5.3961E+01

           1    5.10056E-01     2.3259E-04 -1.3818E+01  1.8496E-07  1.3818E+01
global system                  -3.8147E-06 -2.1590E-06  2.2250E-03  2.2250E-03
                               -2.0844E-07  9.9159E+00  1.2500E+00  5.3961E+01

           1    5.12063E-01     2.1771E-04 -1.3931E+01  7.8065E-08  1.3931E+01
global system                  -5.7220E-06 -3.4427E-06  1.3029E-03  1.3029E-03
                                2.4282E-07  9.9152E+00  1.2500E+00  5.3961E+01

           1    5.14069E-01     1.0130E-04 -1.4044E+01  1.3155E-07  1.4044E+01
global system                  -7.6294E-06  1.4545E-06  1.4612E-03  1.4613E-03
                               -3.5934E-07  9.9146E+00  1.2500E+00  5.3960E+01

           1    5.16075E-01     1.2523E-04 -1.4155E+01 -1.3090E-07  1.4155E+01
global system                   0.0000E+00 -6.5086E-07  1.0242E-03  1.0242E-03
                               -5.9157E-07  9.9139E+00  1.2500E+00  5.3960E+01

           1    5.18081E-01     2.1495E-06 -1.4263E+01 -1.5504E-07  1.4263E+01
global system                   5.7220E-06 -4.0246E-07  1.4560E-03  1.4560E-03
                               -4.0763E-07  9.9133E+00  1.2500E+00  5.3960E+01

           1    5.20003E-01    -1.4264E-05 -1.4369E+01  2.7469E-07  1.4369E+01
global system                   7.6294E-06 -9.0577E-08  1.4506E-03  1.4507E-03
                               -1.4401E-06  9.9127E+00  1.2500E+00  5.3960E+01

           1    5.22010E-01     2.2999E-04 -1.4480E+01 -1.9831E-06  1.4480E+01
global system                  -1.5259E-05  1.0175E-05  1.8315E-03  1.8316E-03
                                3.3663E-07  9.9121E+00  1.2500E+00  5.3959E+01

           1    5.24016E-01     4.0811E-05 -1.4590E+01 -1.0816E-06  1.4590E+01
global system                  -3.8147E-06  2.5095E-06  1.5507E-03  1.5507E-03
                               -9.8097E-07  9.9114E+00  1.2500E+00  5.3959E+01

           1    5.26022E-01     2.4007E-04 -1.4700E+01  4.4801E-07  1.4700E+01
global system                   1.9073E-06 -8.2081E-06  1.5953E-03  1.5954E-03
                               -1.5686E-06  9.9108E+00  1.2500E+00  5.3959E+01

           1    5.28028E-01     1.7738E-04 -1.4813E+01 -1.5362E-06  1.4813E+01
global system                  -7.6294E-06 -2.2954E-06  1.8091E-03  1.8091E-03
                                9.1704E-08  9.9101E+00  1.2500E+00  5.3958E+01

           1    5.30034E-01     3.8676E-05 -1.4923E+01 -9.8126E-07  1.4923E+01
global system                   3.8147E-06  1.5730E-05  1.0899E-03  1.0900E-03
                               -1.4230E-06  9.9094E+00  1.2500E+00  5.3958E+01

           1    5.32040E-01     2.8468E-04 -1.5037E+01 -1.1206E-06  1.5037E+01
global system                  -7.6294E-06 -1.5242E-05  9.6118E-04  9.6133E-04
                               -2.3368E-07  9.9088E+00  1.2500E+00  5.3958E+01

           1    5.34046E-01     1.4170E-04 -1.5148E+01 -1.5309E-07  1.5148E+01
global system                   0.0000E+00  5.8889E-06  5.3172E-04  5.3175E-04
                               -1.3229E-06  9.9081E+00  1.2500E+00  5.3957E+01

           1    5.36052E-01     1.9624E-04 -1.5261E+01  1.1379E-06  1.5261E+01
global system                   0.0000E+00  2.0570E-06  1.9468E-03  1.9468E-03
                               -3.3743E-07  9.9074E+00  1.2500E+00  5.3957E+01

           1    5.38059E-01     2.2660E-04 -1.5373E+01 -1.9917E-06  1.5373E+01
global system                   1.1444E-05 -1.6337E-05  8.2264E-04  8.2288E-04
                               -7.7189E-07  9.9066E+00  1.2500E+00  5.3957E+01

           1    5.40065E-01     1.3853E-04 -1.5487E+01  2.8284E-06  1.5487E+01
global system                  -5.7220E-06 -6.0581E-06  2.5006E-03  2.5006E-03
                               -3.1498E-07  9.9059E+00  1.2500E+00  5.3956E+01

           1    5.42071E-01     3.4915E-04 -1.5601E+01 -1.0306E-06  1.5601E+01
global system                   1.9073E-06 -3.2601E-06  9.5861E-04  9.5862E-04
                               -1.1967E-06  9.9052E+00  1.2500E+00  5.3956E+01

           1    5.44077E-01     4.2710E-05 -1.5719E+01  2.5233E-07  1.5719E+01
global system                   5.7220E-06  9.0485E-06  2.4797E-03  2.4797E-03
                               -1.3186E-07  9.9045E+00  1.2500E+00  5.3956E+01

           1    5.46083E-01    -9.2503E-05 -1.5835E+01 -9.5482E-07  1.5835E+01
global system                   0.0000E+00 -1.2584E-05  1.6440E-03  1.6440E-03
                               -1.4189E-06  9.9037E+00  1.2500E+00  5.3955E+01

           1    5.48006E-01     3.1102E-05 -1.5947E+01 -2.0843E-07  1.5947E+01
global system                   1.9073E-06 -2.1156E-05  7.3584E-04  7.3614E-04
                               -1.7134E-07  9.9030E+00  1.2500E+00  5.3955E+01

           1    5.50012E-01     1.8075E-04 -1.6066E+01  9.8700E-07  1.6066E+01
global system                  -3.8147E-06  1.7631E-07  1.3394E-03  1.3394E-03
                                3.5515E-07  9.9023E+00  1.2500E+00  5.3955E+01

           1    5.52018E-01     6.7167E-05 -1.6182E+01 -2.5942E-06  1.6182E+01
global system                  -7.6294E-06  8.6912E-06  2.6312E-03  2.6313E-03
                               -1.5005E-06  9.9015E+00  1.2500E+00  5.3954E+01

           1    5.54024E-01     1.9406E-04 -1.6297E+01  4.8558E-07  1.6297E+01
global system                   5.7220E-06  1.3983E-05  2.0424E-03  2.0425E-03
                               -1.1015E-08  9.9008E+00  1.2500E+00  5.3954E+01

           1    5.56030E-01     4.0893E-04 -1.6410E+01  6.9628E-07  1.6410E+01
global system                  -3.8147E-06 -9.5656E-06  1.6657E-03  1.6657E-03
                                8.4527E-07  9.9001E+00  1.2500E+00  5.3954E+01

           1    5.58036E-01     2.2721E-04 -1.6524E+01  7.7264E-07  1.6524E+01
global system                   9.5367E-06 -8.2036E-06  2.8646E-03  2.8646E-03
                               -2.0606E-06  9.8994E+00  1.2500E+00  5.3954E+01

           1    5.60042E-01     8.8781E-05 -1.6638E+01 -4.1820E-07  1.6638E+01
global system                   1.9073E-06  5.7005E-06  1.0124E-03  1.0124E-03
                                8.7240E-07  9.8987E+00  1.2500E+00  5.3953E+01

           1    5.62048E-01     9.6530E-05 -1.6748E+01  2.2698E-07  1.6748E+01
global system                   3.8147E-06  6.8648E-06  2.9020E-03  2.9020E-03
                               -1.2729E-06  9.8980E+00  1.2500E+00  5.3953E+01

           1    5.64054E-01    -4.8209E-05 -1.6855E+01  3.8620E-07  1.6855E+01
global system                   0.0000E+00 -5.9122E-06 -2.6517E-05  2.7168E-05
                               -1.7160E-06  9.8973E+00  1.2500E+00  5.3953E+01

           1    5.66061E-01     2.6648E-04 -1.6961E+01 -1.2274E-06  1.6961E+01
global system                   3.8147E-06 -1.1548E-05  2.0591E-03  2.0592E-03
                               -8.9898E-07  9.8966E+00  1.2500E+00  5.3952E+01

           1    5.68067E-01     1.6924E-05 -1.7069E+01  1.0816E-06  1.7069E+01
global system                   1.9073E-06 -1.0688E-05  2.6356E-03  2.6356E-03
                               -4.5298E-07  9.8960E+00  1.2500E+00  5.3952E+01

           1    5.70073E-01     3.3953E-04 -1.7172E+01 -2.7377E-06  1.7172E+01
global system                  -5.7220E-06 -1.1928E-05  1.1150E-03  1.1151E-03
                                4.2046E-07  9.8954E+00  1.2500E+00  5.3952E+01

           1    5.72079E-01    -7.7344E-05 -1.7278E+01  1.5221E-06  1.7278E+01
global system                   0.0000E+00  1.0759E-05  2.0003E-03  2.0003E-03
                               -1.4280E-06  9.8947E+00  1.2500E+00  5.3951E+01

           1    5.74002E-01     1.3358E-04 -1.7380E+01  2.3391E-06  1.7380E+01
global system                   7.6294E-06 -7.0359E-06 -1.7749E-04  1.7779E-04
                               -2.4551E-07  9.8941E+00  1.2500E+00  5.3951E+01

           1    5.76008E-01     1.5781E-04 -1.7485E+01  8.8781E-07  1.7485E+01
global system                   0.0000E+00 -9.5652E-06  5.4430E-03  5.4430E-03
                                1.7309E-07  9.8936E+00  1.2500E+00  5.3951E+01

           1    5.78014E-01     9.6746E-05 -1.7588E+01  2.1572E-07  1.7588E+01
global system                  -9.5367E-06  2.4711E-06 -6.8393E-04  6.8400E-04
                               -1.5058E-06  9.8930E+00  1.2500E+00  5.3951E+01

           1    5.80020E-01     1.6758E-04 -1.7693E+01 -1.6916E-06  1.7693E+01
global system                  -1.9073E-06  1.1564E-05  3.5644E-03  3.5644E-03
                               -2.3676E-06  9.8924E+00  1.2500E+00  5.3950E+01

           1    5.82026E-01     4.8768E-04 -1.7800E+01  1.0314E-09  1.7800E+01
global system                  -3.8147E-06  1.3353E-05 -4.2875E-04  4.2897E-04
                               -1.0666E-06  9.8918E+00  1.2500E+00  5.3950E+01

           1    5.84032E-01     2.7412E-04 -1.7908E+01 -3.3174E-07  1.7908E+01
global system                   1.9073E-06 -1.6720E-05  2.9598E-03  2.9599E-03
                               -7.2619E-07  9.8912E+00  1.2500E+00  5.3950E+01

           1    5.86038E-01     4.3762E-04 -1.8012E+01 -1.5723E-07  1.8012E+01
global system                  -9.5367E-06  3.2051E-06  3.1915E-03  3.1915E-03
                               -3.0305E-07  9.8906E+00  1.2500E+00  5.3949E+01

           1    5.88044E-01     2.3045E-04 -1.8121E+01  1.7020E-06  1.8121E+01
global system                   7.6294E-06 -9.5498E-06  6.5896E-04  6.5907E-04
                               -1.2328E-07  9.8900E+00  1.2500E+00  5.3949E+01

           1    5.90051E-01     2.4454E-04 -1.8229E+01  1.1200E-06  1.8229E+01
global system                   3.8147E-06  4.3946E-06  1.8396E-03  1.8396E-03
                               -2.9486E-07  9.8894E+00  1.2500E+00  5.3949E+01

           1    5.92057E-01    -7.3928E-05 -1.8337E+01 -3.4877E-07  1.8337E+01
global system                   9.5367E-06 -7.3991E-07  2.4748E-03  2.4748E-03
                               -6.2980E-07  9.8887E+00  1.2500E+00  5.3949E+01

           1    5.94063E-01     2.1213E-04 -1.8438E+01 -3.4448E-07  1.8438E+01
global system                   0.0000E+00 -2.2326E-05  3.5478E-03  3.5478E-03
                               -1.9608E-07  9.8881E+00  1.2500E+00  5.3948E+01

           1    5.96069E-01    -9.9603E-05 -1.8547E+01  1.6538E-06  1.8547E+01
global system                  -7.6294E-06 -3.0941E-06  3.1848E-03  3.1849E-03
                                2.1352E-07  9.8874E+00  1.2500E+00  5.3948E+01

           1    5.98075E-01     1.9780E-04 -1.8646E+01 -1.2307E-06  1.8646E+01
global system                   1.9073E-06  9.1266E-06  2.4879E-03  2.4880E-03
                                1.6958E-07  9.8867E+00  1.2500E+00  5.3948E+01

           1    6.00081E-01     2.7200E-04 -1.8745E+01  1.0686E-06  1.8745E+01
global system                   1.9073E-06  1.0851E-05  2.5686E-04  2.5710E-04
                                1.3925E-07  9.8861E+00  1.2500E+00  5.3947E+01

           1    6.02004E-01     2.4846E-04 -1.8838E+01 -1.3520E-06  1.8838E+01
global system                   1.9073E-06 -4.6554E-06  4.6452E-03  4.6452E-03
                                6.8796E-07  9.8854E+00  1.2500E+00  5.3947E+01

           1    6.04010E-01     2.4789E-04 -1.8918E+01 -6.0768E-07  1.8918E+01
global system                  -5.7220E-06 -1.8283E-05  1.1379E-03  1.1381E-03
                                9.5572E-07  9.8847E+00  1.2500E+00  5.3947E+01

           1    6.06016E-01     2.3049E-04 -1.9018E+01  4.8219E-07  1.9018E+01
global system                  -3.8147E-06  1.2845E-05  2.8136E-03  2.8136E-03
                                2.0360E-06  9.8841E+00  1.2500E+00  5.3947E+01

           1    6.08022E-01    -1.7065E-04 -1.9113E+01 -1.8032E-06  1.9113E+01
global system                   0.0000E+00  1.7346E-05  1.4617E-03  1.4618E-03
                                1.4852E-06  9.8834E+00  1.2500E+00  5.3946E+01

           1    6.10028E-01     5.4700E-04 -1.9210E+01  1.2318E-06  1.9210E+01
global system                   7.6294E-06 -3.2106E-06  2.5273E-03  2.5274E-03
                                3.2819E-06  9.8828E+00  1.2500E+00  5.3946E+01

           1    6.12034E-01     2.0496E-04 -1.9304E+01 -1.3945E-06  1.9304E+01
global system                  -9.5367E-06 -1.1794E-05 -3.4590E-04  3.4623E-04
                                6.6303E-07  9.8822E+00  1.2500E+00  5.3946E+01

           1    6.14040E-01     3.6138E-04 -1.9401E+01 -1.0331E-06  1.9401E+01
global system                  -1.3351E-05 -4.5271E-07  3.5925E-03  3.5925E-03
                                2.4919E-06  9.8816E+00  1.2500E+00  5.3946E+01

           1    6.16046E-01    -2.5457E-04 -1.9505E+01 -2.4886E-06  1.9505E+01
global system                   1.9073E-06  1.7679E-06  3.0161E-03  3.0161E-03
                                2.5410E-06  9.8810E+00  1.2500E+00  5.3945E+01

           1    6.18053E-01     7.8862E-04 -1.9602E+01 -9.6614E-07  1.9602E+01
global system                   1.9073E-06  2.8689E-06  1.3094E-03  1.3094E-03
                                1.2923E-06  9.8805E+00  1.2500E+00  5.3945E+01

           1    6.20059E-01    -4.2491E-05 -1.9701E+01 -7.3967E-07  1.9701E+01
global system                  -1.9073E-06  2.0628E-06  3.8456E-03  3.8456E-03
                                1.2359E-06  9.8799E+00  1.2500E+00  5.3945E+01

           1    6.22065E-01    -1.4930E-04 -1.9796E+01 -1.5698E-07  1.9796E+01
global system                   1.9073E-06  1.0537E-06  1.9747E-03  1.9747E-03
                                1.5232E-06  9.8794E+00  1.2500E+00  5.3944E+01

           1    6.24071E-01     4.5126E-04 -1.9892E+01  1.5173E-07  1.9892E+01
global system                  -7.6294E-06 -6.2364E-06  3.2237E-03  3.2237E-03
                                2.6092E-06  9.8789E+00  1.2500E+00  5.3944E+01

           1    6.26077E-01     4.3450E-04 -1.9991E+01  5.7302E-07  1.9991E+01
global system                   3.8147E-06 -1.2090E-05  5.2489E-03  5.2490E-03
                                2.3907E-06  9.8784E+00  1.2500E+00  5.3944E+01

           1    6.28000E-01    -1.2070E-06 -2.0058E+01  3.2602E-07  2.0058E+01
global system                  -9.5367E-06 -5.7223E-06  2.7184E-03  2.7184E-03
                                2.2913E-06  9.8780E+00  1.2500E+00  5.3944E+01

           1    6.30006E-01     6.1176E-04 -2.0163E+01 -8.9932E-09  2.0163E+01
global system                  -1.9073E-06  5.0844E-07  1.2281E-03  1.2281E-03
                                1.6266E-06  9.8775E+00  1.2500E+00  5.3943E+01

           1    6.32012E-01     1.7896E-04 -2.0256E+01 -1.0011E-06  2.0256E+01
global system                  -1.7166E-05 -1.1358E-05  6.1652E-03  6.1652E-03
                                2.6846E-06  9.8770E+00  1.2500E+00  5.3943E+01

           1    6.34018E-01     3.7812E-04 -2.0338E+01 -2.1774E-06  2.0338E+01
global system                  -1.5259E-05 -2.3038E-05  5.3850E-03  5.3851E-03
                                6.1585E-06  9.8765E+00  1.2500E+00  5.3943E+01

           1    6.36024E-01     8.6956E-05 -2.0430E+01  6.2047E-07  2.0430E+01
global system                  -3.8147E-06  2.4706E-06 -1.1675E-03  1.1676E-03
                                3.9667E-06  9.8759E+00  1.2500E+00  5.3943E+01

           1    6.38030E-01     4.4492E-04 -2.0509E+01 -1.2045E-06  2.0509E+01
global system                  -3.8147E-06  1.6253E-05  3.9215E-03  3.9215E-03
                                3.3120E-06  9.8754E+00  1.2500E+00  5.3942E+01

           1    6.40036E-01    -9.3229E-05 -2.0585E+01  1.1004E-06  2.0585E+01
global system                   0.0000E+00 -3.3801E-06 -6.4684E-04  6.4684E-04
                                3.8617E-06  9.8748E+00  1.2500E+00  5.3942E+01

           1    6.42043E-01     5.2952E-04 -2.0667E+01  5.5619E-07  2.0667E+01
global system                  -1.9073E-06 -2.9885E-05  8.0739E-03  8.0739E-03
                                5.3908E-06  9.8743E+00  1.2500E+00  5.3942E+01

           1    6.44049E-01     3.3252E-05 -2.0751E+01 -1.5175E-07  2.0751E+01
global system                  -1.9073E-06 -7.6901E-06  3.8300E-03  3.8300E-03
                                6.1789E-06  9.8738E+00  1.2500E+00  5.3942E+01

           1    6.46055E-01     2.7485E-04 -2.0832E+01  3.4647E-06  2.0832E+01
global system                  -1.9073E-06  1.8495E-05  1.1915E-03  1.1917E-03
                                3.6665E-06  9.8732E+00  1.2500E+00  5.3941E+01

           1    6.48061E-01     1.2120E-04 -2.0915E+01  4.9113E-08  2.0915E+01
global system                  -7.6294E-06 -2.0349E-05  2.4353E-03  2.4354E-03
                                5.3425E-06  9.8727E+00  1.2500E+00  5.3941E+01

           1    6.50067E-01     2.9682E-04 -2.1030E+01  3.2883E-06  2.1030E+01
global system                  -3.8147E-06 -1.0750E-05  2.6775E-03  2.6775E-03
                                4.4793E-06  9.8721E+00  1.2500E+00  5.3941E+01

           1    6.52073E-01     4.1819E-04 -2.1100E+01 -7.3065E-07  2.1100E+01
global system                  -1.1444E-05  3.6594E-06  3.8355E-03  3.8355E-03
                                5.5078E-06  9.8715E+00  1.2500E+00  5.3941E+01

           1    6.54079E-01     4.4031E-04 -2.1200E+01 -7.4142E-08  2.1200E+01
global system                   1.5259E-05  2.0918E-05  8.2647E-03  8.2647E-03
                                3.9479E-06  9.8710E+00  1.2500E+00  5.3940E+01

           1    6.56002E-01     3.0008E-04 -2.1288E+01 -6.8094E-06  2.1288E+01
[...]
                                5.0461E-05  9.9785E+00  1.2500E+00  5.3992E+01

           1    1.33800E+00     1.1013E-03  4.2284E+00  1.8513E-05  4.2284E+00
global system                   1.6689E-05  9.5504E-05  5.7048E-01  5.7048E-01
                                1.1294E-04  1.0007E+01  1.2500E+00  5.3967E+01

           1    1.34001E+00    -4.8322E-02 -1.2237E+00 -5.5317E-06  1.2246E+00
global system                  -2.3484E-05 -3.4219E-04  2.1901E-02  2.1904E-02
                                5.8907E-05  1.0028E+01  1.2500E+00  5.3969E+01

           1    1.34201E+00     5.2313E-02 -5.2438E+00 -3.1313E-05  5.2440E+00
global system                   3.8147E-06 -3.9554E-04 -3.2674E-01  3.2674E-01
                                9.0965E-05  1.0048E+01  1.2500E+00  5.3981E+01

           1    1.34402E+00    -1.6952E-02 -1.7004E-01 -2.8990E-05  1.7089E-01
global system                  -1.3188E-05 -1.0781E-04  1.5096E-02  1.5096E-02
                                1.4299E-04  1.0070E+01  1.2500E+00  5.4000E+01

           1    1.34602E+00    -1.1427E-02  2.7420E+00  8.2572E-06  2.7420E+00
global system                  -4.7684E-06  1.2696E-04 -1.0275E-01  1.0275E-01
                                1.2086E-04  1.0097E+01  1.2500E+00  5.3994E+01

           1    1.34803E+00    -1.8817E-02  4.5483E+00  1.3812E-06  4.5483E+00
global system                  -2.8610E-05  4.4926E-04 -5.7881E-01  5.7881E-01
                                1.1355E-04  1.0122E+01  1.2500E+00  5.3984E+01

           1    1.35004E+00     1.0783E-03  4.4535E+00  6.6653E-06  4.4535E+00
global system                  -2.2888E-05 -1.9961E-04  2.8948E-01  2.8948E-01
                                9.1311E-05  1.0140E+01  1.2500E+00  5.3981E+01

           1    1.35204E+00     3.6759E-03  4.3855E+00  2.0118E-05  4.3855E+00
global system                  -4.7684E-07 -3.6966E-04  1.5905E-01  1.5905E-01
                                8.4509E-05  1.0150E+01  1.2500E+00  5.3985E+01

           1    1.35405E+00     4.7407E-03  9.2998E+00 -2.4541E-05  9.2998E+00
global system                  -1.4305E-05  3.1542E-04  4.6168E-01  4.6168E-01
                                1.2622E-04  1.0152E+01  1.2500E+00  5.4004E+01

           1    1.35605E+00    -2.4329E-02  1.2120E+01 -2.2605E-06  1.2120E+01
global system                  -2.0027E-05 -3.2227E-04  1.2429E-01  1.2429E-01
                                5.9553E-05  1.0145E+01  1.2500E+00  5.4030E+01

           1    1.35806E+00     2.2265E-03  9.2368E+00  6.5647E-06  9.2368E+00
global system                  -3.8147E-06  3.2703E-05 -2.9663E-01  2.9663E-01
                                5.2156E-05  1.0125E+01  1.2500E+00  5.4026E+01

           1    1.36007E+00    -2.9041E-02  5.3820E+00  6.1761E-06  5.3821E+00
global system                   2.0504E-05 -7.6927E-05  1.2916E-01  1.2916E-01
                                8.4766E-05  1.0093E+01  1.2500E+00  5.4007E+01

           1    1.36207E+00     3.2365E-02  6.5846E-01 -3.0410E-06  6.5926E-01
global system                   7.2122E-06  1.3723E-04  3.5951E-02  3.5952E-02
                                9.5614E-05  1.0056E+01  1.2500E+00  5.3980E+01

           1    1.36400E+00    -5.7589E-02 -5.1045E+00 -6.7094E-05  5.1048E+00
global system                  -3.2425E-05 -2.5212E-04  1.8562E-01  1.8562E-01
                                9.6141E-05  1.0022E+01  1.2500E+00  5.3959E+01

           1    1.36600E+00     6.0002E-03 -7.9480E+00  1.8503E-05  7.9480E+00
global system                   2.0981E-05 -4.2669E-04 -4.7416E-01  4.7416E-01
                                7.3880E-05  9.9909E+00  1.2500E+00  5.3947E+01

           1    1.36801E+00     4.8556E-02 -3.1097E+00  5.7605E-05  3.1101E+00
global system                   4.6015E-05  2.2527E-05 -3.8362E-01  3.8362E-01
                                9.8851E-05  9.9640E+00  1.2500E+00  5.3953E+01

           1    1.37001E+00    -1.0113E-01 -4.3031E-01  2.8898E-05  4.4203E-01
global system                   2.3186E-05 -1.5092E-04  5.5822E-01  5.5822E-01
                                1.2472E-04  9.9397E+00  1.2500E+00  5.3975E+01

           1    1.37202E+00     3.4699E-02 -2.5257E+00 -4.2293E-05  2.5260E+00
global system                  -1.9073E-05 -1.7336E-04 -4.4177E-01  4.4177E-01
                                1.1231E-04  9.9175E+00  1.2500E+00  5.3982E+01

           1    1.37403E+00     1.5090E-02 -1.1086E+00 -3.3334E-06  1.1087E+00
global system                   8.2254E-06 -8.6952E-05  1.7276E-01  1.7276E-01
                                8.0387E-05  9.8984E+00  1.2500E+00  5.3992E+01

           1    1.37603E+00    -8.2465E-03 -9.0103E-01  5.9688E-05  9.0107E-01
global system                   5.1618E-05  4.8138E-04 -8.3540E-02  8.3542E-02
                                2.9949E-05  9.8826E+00  1.2500E+00  5.3997E+01

           1    1.37804E+00    -5.1658E-03  1.2219E-01 -2.9578E-06  1.2230E-01
global system                   1.4126E-05 -3.8995E-04  8.8934E-05  4.0022E-04
                                8.6410E-05  9.8682E+00  1.2500E+00  5.3988E+01

           1    1.38004E+00    -2.6387E-02 -3.0038E+00 -3.6799E-05  3.0040E+00
global system                  -8.3447E-06  1.9071E-04  8.0364E-02  8.0364E-02
                                8.5121E-05  9.8554E+00  1.2500E+00  5.3965E+01

           1    1.38205E+00     5.5677E-02 -8.7120E+00  5.0130E-05  8.7122E+00
global system                   6.6757E-06  5.3750E-04 -7.0996E-02  7.0998E-02
                                3.6698E-05  9.8504E+00  1.2500E+00  5.3937E+01

           1    1.38406E+00    -5.6939E-03 -1.5798E+01  2.5358E-05  1.5798E+01
global system                   2.4796E-05 -1.0379E-04  2.0684E-01  2.0684E-01
                                6.3806E-05  9.8542E+00  1.2500E+00  5.3919E+01

           1    1.38606E+00     1.7515E-03 -1.0675E+01 -2.2440E-05  1.0675E+01
global system                   1.1444E-05  5.2032E-04  1.5565E-01  1.5565E-01
                                1.2555E-04  9.8709E+00  1.2500E+00  5.3939E+01

           1    1.38807E+00     3.5539E-02 -4.6755E+00  2.8979E-05  4.6757E+00
global system                  -8.1062E-06 -1.8923E-04 -1.3159E-01  1.3159E-01
                                7.0831E-06  9.8979E+00  1.2500E+00  5.3975E+01

           1    1.38999E+00    -1.3662E-02 -2.8855E-01  3.3301E-06  2.8888E-01
global system                   1.7554E-05 -1.6397E-05  2.8685E-01  2.8685E-01
                                3.3929E-05  9.9296E+00  1.2500E+00  5.4000E+01

           1    1.39200E+00    -3.7174E-02  2.1085E+00 -3.5506E-05  2.1088E+00
global system                  -3.8385E-05  8.0541E-04 -1.4240E-02  1.4263E-02
                                1.5656E-05  9.9668E+00  1.2500E+00  5.4007E+01

           1    1.39400E+00    -6.6206E-04  2.3147E+00  1.5565E-05  2.3147E+00
global system                  -1.5259E-05 -5.2756E-05  1.3996E-01  1.3996E-01
                                1.6264E-05  1.0005E+01  1.2500E+00  5.3990E+01

           1    1.39601E+00     3.5747E-02  2.7972E+00 -5.6484E-05  2.7974E+00
global system                  -6.4373E-06 -7.8394E-04 -5.3462E-02  5.3468E-02
                                2.6521E-06  1.0039E+01  1.2500E+00  5.3971E+01

           1    1.39802E+00    -3.4326E-02  5.5512E+00  1.6523E-05  5.5513E+00
global system                   2.0027E-05  7.6462E-05  1.9832E-01  1.9832E-01
                               -1.9299E-05  1.0068E+01  1.2500E+00  5.3978E+01

           1    1.40002E+00    -3.0910E-02  5.7038E+00 -1.0400E-05  5.7039E+00
global system                  -2.5749E-05  1.7656E-04 -1.0476E-01  1.0476E-01
                               -2.3383E-05  1.0090E+01  1.2500E+00  5.3996E+01

           1    1.40203E+00     4.7652E-02  4.6565E+00 -8.3836E-06  4.6567E+00
global system                   2.9564E-05  1.9843E-04 -1.0371E-01  1.0371E-01
                               -3.2425E-05  1.0105E+01  1.2500E+00  5.4012E+01

           1    1.40403E+00    -1.5765E-02  4.0884E+00 -1.8369E-05  4.0884E+00
global system                  -4.7684E-07 -1.0874E-04  2.0335E-01  2.0335E-01
                               -2.7318E-05  1.0115E+01  1.2500E+00  5.4004E+01

           1    1.40604E+00    -1.1007E-02 -1.3944E+00 -1.5729E-05  1.3945E+00
global system                  -2.7299E-05 -6.2897E-04 -3.8686E-01  3.8686E-01
                               -6.6176E-05  1.0124E+01  1.2500E+00  5.3976E+01

           1    1.40805E+00    -8.0125E-03 -3.1157E+00 -1.9804E-05  3.1157E+00
global system                  -2.6226E-05  8.5418E-05 -4.5310E-01  4.5310E-01
                               -7.7402E-05  1.0134E+01  1.2500E+00  5.3970E+01

           1    1.41005E+00    -2.8887E-02  4.5698E+00 -2.0111E-05  4.5699E+00
global system                  -1.6212E-05  2.9109E-05  6.2473E-01  6.2473E-01
                               -2.5620E-05  1.0140E+01  1.2500E+00  5.3980E+01

           1    1.41206E+00     3.8978E-03  1.0985E+01  2.0887E-05  1.0985E+01
global system                  -2.2888E-05  6.2956E-05 -6.5662E-01  6.5662E-01
                               -3.1729E-05  1.0139E+01  1.2500E+00  5.4002E+01

           1    1.41406E+00     1.5111E-02  1.0659E+01  1.6208E-05  1.0659E+01
global system                   1.1444E-05  1.9237E-04  6.1605E-01  6.1605E-01
                               -6.2995E-05  1.0128E+01  1.2500E+00  5.4018E+01

           1    1.41607E+00    -1.1776E-02  9.7076E+00  1.2495E-05  9.7076E+00
global system                   1.5259E-05 -4.2010E-04  1.4570E-01  1.4570E-01
                               -1.0869E-04  1.0106E+01  1.2500E+00  5.4026E+01

           1    1.41799E+00     2.6536E-02  5.8916E+00 -2.7665E-05  5.8917E+00
global system                  -3.0518E-05 -8.1509E-06 -5.3608E-01  5.3608E-01
                               -7.1830E-05  1.0075E+01  1.2500E+00  5.4007E+01

           1    1.42000E+00    -1.6803E-02  1.5941E+00 -2.7988E-07  1.5942E+00
global system                   1.9908E-05 -7.4937E-04  3.9879E-01  3.9879E-01
                               -4.0792E-05  1.0036E+01  1.2500E+00  5.3987E+01

           1    1.42201E+00    -8.3317E-03 -2.4052E+00 -4.6181E-06  2.4052E+00
global system                   3.0041E-05 -2.5569E-04 -1.5942E-01  1.5942E-01
                               -1.2837E-04  9.9965E+00  1.2500E+00  5.3969E+01

           1    1.42401E+00     4.6196E-02 -6.2823E+00  4.4911E-06  6.2825E+00
global system                   1.6212E-05  2.8639E-04  2.3753E-01  2.3753E-01
                               -5.7252E-05  9.9588E+00  1.2500E+00  5.3953E+01

           1    1.42602E+00     5.7593E-02 -9.7008E+00  2.8166E-05  9.7010E+00
global system                   2.9564E-05 -9.9808E-05 -1.3362E-01  1.3362E-01
                               -9.0341E-05  9.9268E+00  1.2500E+00  5.3949E+01

           1    1.42802E+00    -5.2201E-02 -7.0222E+00 -3.6062E-05  7.0224E+00
global system                  -2.0027E-05 -4.5156E-04  3.1420E-01  3.1420E-01
                               -1.2999E-05  9.9031E+00  1.2500E+00  5.3960E+01

           1    1.43003E+00    -2.2219E-02 -3.2052E+00 -9.6802E-07  3.2053E+00
global system                   2.8610E-06  4.3822E-05 -5.0209E-02  5.0209E-02
                               -4.2211E-05  9.8876E+00  1.2500E+00  5.3969E+01

           1    1.43204E+00     1.8720E-02 -1.7690E+00  8.8755E-06  1.7691E+00
global system                   2.6941E-05 -9.7953E-05  3.3326E-01  3.3326E-01
                               -6.3175E-05  9.8782E+00  1.2500E+00  5.3979E+01

           1    1.43404E+00     2.8334E-02 -1.1578E-01  5.1140E-05  1.1919E-01
global system                   5.9754E-06 -3.0945E-04 -8.4767E-02  8.4768E-02
                               -9.1423E-05  9.8714E+00  1.2500E+00  5.3984E+01

           1    1.43605E+00    -5.2963E-02 -4.1405E+00  2.7951E-05  4.1408E+00
global system                  -3.4809E-05  7.1365E-04  1.1476E-01  1.1476E-01
                               -1.1239E-04  9.8644E+00  1.2500E+00  5.3977E+01

           1    1.43805E+00     8.6475E-03 -3.9617E+00 -3.5412E-05  3.9617E+00
global system                  -5.5790E-05 -2.5069E-04 -6.2750E-01  6.2750E-01
                               -3.1423E-05  9.8616E+00  1.2500E+00  5.3975E+01

           1    1.44006E+00    -1.8700E-02 -5.3428E+00 -6.0113E-05  5.3428E+00
global system                  -2.3842E-05  3.0043E-04  4.0509E-01  4.0509E-01
                               -1.4529E-04  9.8668E+00  1.2500E+00  5.3964E+01

           1    1.44207E+00    -7.6229E-03 -4.0067E+00  1.0428E-05  4.0067E+00
global system                   1.1921E-05  8.0370E-05 -3.6222E-02  3.6222E-02
                               -1.2369E-04  9.8799E+00  1.2500E+00  5.3955E+01

           1    1.44399E+00    -1.0105E-02 -7.4559E+00 -3.5011E-05  7.4559E+00
global system                   9.5367E-06 -1.7700E-05 -2.4042E-02  2.4042E-02
                               -9.1147E-05  9.8984E+00  1.2500E+00  5.3951E+01

           1    1.44600E+00    -2.0256E-02 -6.8319E+00 -1.4629E-05  6.8319E+00
global system                  -2.0981E-05  2.4800E-04 -1.8058E-01  1.8058E-01
                               -6.5727E-05  9.9213E+00  1.2500E+00  5.3959E+01

           1    1.44800E+00     1.0063E-02 -4.7055E+00 -1.1929E-06  4.7055E+00
global system                  -7.6294E-06 -3.2405E-04  4.2145E-02  4.2147E-02
                               -1.2053E-04  9.9498E+00  1.2500E+00  5.3972E+01

           1    1.45001E+00    -2.4095E-02 -4.3577E+00 -7.4357E-06  4.3577E+00
global system                  -2.3842E-05  2.1281E-04  4.7815E-01  4.7815E-01
                               -8.4513E-05  9.9873E+00  1.2500E+00  5.3983E+01

           1    1.45201E+00     5.6960E-03  6.8833E-02 -2.4172E-05  6.9068E-02
global system                  -2.6822E-07  1.9795E-04 -3.6375E-02  3.6375E-02
                               -8.8082E-05  1.0029E+01  1.2500E+00  5.3989E+01

           1    1.45402E+00     3.2503E-02  8.5294E+00  1.6291E-05  8.5295E+00
global system                  -3.5286E-05 -6.1318E-05  3.9454E-02  3.9454E-02
                               -6.8020E-05  1.0070E+01  1.2500E+00  5.3988E+01

           1    1.45603E+00    -2.3869E-02  1.1915E+01  6.3749E-05  1.1915E+01
global system                   6.6757E-06 -4.4065E-05  1.6335E-01  1.6335E-01
                               -7.2141E-05  1.0101E+01  1.2500E+00  5.4001E+01

           1    1.45803E+00     4.3968E-03  7.2650E+00  4.4259E-07  7.2650E+00
global system                   6.6757E-06  1.3219E-04 -4.0106E-01  4.0106E-01
                               -9.6523E-05  1.0120E+01  1.2500E+00  5.4009E+01

           1    1.46004E+00    -1.6921E-02  5.0106E+00 -6.3493E-06  5.0107E+00
global system                  -3.8147E-06 -1.0838E-04  6.5981E-01  6.5981E-01
                               -9.9759E-05  1.0130E+01  1.2500E+00  5.4013E+01

           1    1.46204E+00     1.5212E-02  7.0030E+00 -3.3780E-05  7.0030E+00
global system                  -4.7684E-06  4.1939E-04 -1.5924E-01  1.5924E-01
                               -7.1704E-05  1.0134E+01  1.2500E+00  5.4013E+01

           1    1.46405E+00     1.1167E-02  1.3738E+00  5.0974E-05  1.3738E+00
global system                   4.6253E-05 -1.6592E-04 -3.5132E-01  3.5132E-01
                               -1.4006E-04  1.0133E+01  1.2500E+00  5.3979E+01

           1    1.46606E+00    -1.4528E-02 -1.0727E+00  3.8096E-06  1.0728E+00
global system                   2.0623E-05 -1.3400E-04 -4.4191E-03  4.4212E-03
                               -1.1336E-04  1.0127E+01  1.2500E+00  5.3965E+01

           1    1.46806E+00    -6.5026E-04 -1.4002E+00 -2.2159E-05  1.4002E+00
global system                  -5.7220E-06  8.0685E-05  4.3144E-01  4.3144E-01
                               -2.2298E-05  1.0119E+01  1.2500E+00  5.3970E+01

           1    1.47007E+00     3.7379E-02  6.4109E-01  1.5843E-05  6.4218E-01
global system                   1.5557E-05 -5.5235E-05 -2.3085E-01  2.3085E-01
                               -6.4442E-05  1.0110E+01  1.2500E+00  5.3979E+01

           1    1.47199E+00    -4.9417E-04  1.0209E+01 -4.7305E-06  1.0209E+01
global system                   1.9073E-06  1.7009E-04 -4.3176E-01  4.3176E-01
                                1.7028E-05  1.0099E+01  1.2500E+00  5.4012E+01

           1    1.47400E+00     2.2754E-02  1.2075E+01  1.8800E-05  1.2075E+01
global system                  -5.7220E-06 -1.6928E-04 -5.5284E-02  5.5284E-02
                               -4.7670E-05  1.0081E+01  1.2500E+00  5.4024E+01

           1    1.47600E+00     4.0272E-02  7.9005E+00 -1.0858E-05  7.9006E+00
global system                  -1.6212E-05 -2.5995E-05  2.5896E-01  2.5896E-01
                               -1.4053E-05  1.0052E+01  1.2500E+00  5.4013E+01

           1    1.47801E+00     9.7652E-03  1.2556E+00  1.4474E-05  1.2556E+00
global system                  -1.0967E-05 -1.3821E-04  1.4160E-01  1.4160E-01
                                5.5696E-06  1.0012E+01  1.2500E+00  5.3989E+01

           1    1.48002E+00    -3.7336E-02 -3.8187E+00  6.6054E-06  3.8189E+00
global system                   5.7220E-06  4.1630E-04 -4.8133E-02  4.8135E-02
                               -3.8414E-05  9.9698E+00  1.2500E+00  5.3970E+01

           1    1.48202E+00     4.0873E-04 -8.4977E+00  1.4899E-05  8.4977E+00
global system                   3.7193E-05  9.5790E-05  3.3090E-02  3.3090E-02
                               -5.9296E-05  9.9322E+00  1.2500E+00  5.3957E+01

           1    1.48403E+00     3.6222E-02 -6.1596E+00  3.1293E-05  6.1597E+00
global system                   3.6240E-05 -2.4552E-04  2.7859E-01  2.7859E-01
                                3.4343E-05  9.9008E+00  1.2500E+00  5.3956E+01

           1    1.48603E+00    -3.9774E-02 -3.3952E+00  1.9830E-05  3.3954E+00
global system                   2.0027E-05 -6.0050E-04  2.4856E-02  2.4863E-02
                                1.6435E-05  9.8779E+00  1.2500E+00  5.3964E+01

           1    1.48804E+00    -3.9818E-02 -7.1815E+00 -1.2953E-05  7.1817E+00
global system                   1.3351E-05 -2.5887E-04  2.1673E-01  2.1673E-01
                                1.8867E-05  9.8617E+00  1.2500E+00  5.3960E+01

           1    1.49005E+00     4.9348E-02 -8.5407E+00  5.8782E-06  8.5409E+00
global system                   4.5776E-05  5.3916E-04 -3.0195E-01  3.0195E-01
                                3.3061E-05  9.8552E+00  1.2500E+00  5.3948E+01

           1    1.49205E+00    -2.7583E-02 -6.1667E+00  3.5760E-05  6.1668E+00
global system                   2.4796E-05 -4.6679E-04 -6.6111E-02  6.6113E-02
                                5.5443E-05  9.8583E+00  1.2500E+00  5.3960E+01

           1    1.49406E+00    -1.5772E-02 -5.5297E+00 -1.1902E-05  5.5297E+00
global system                   1.2875E-05 -7.3010E-05  8.0564E-02  8.0564E-02
                                5.3870E-05  9.8687E+00  1.2500E+00  5.3975E+01

           1    1.49607E+00    -1.6949E-02  1.1444E+00 -5.6228E-06  1.1445E+00
global system                  -1.7881E-06 -9.2458E-05  1.5910E-01  1.5910E-01
                                5.5092E-05  9.8802E+00  1.2500E+00  5.3997E+01

           1    1.49807E+00     2.5729E-02  4.2391E+00 -1.3688E-05  4.2392E+00
global system                   1.0490E-05  3.5147E-04 -6.3195E-01  6.3195E-01
                                2.4695E-05  9.8920E+00  1.2500E+00  5.3999E+01

           1    1.49999E+00    -2.2207E-03 -1.7986E+00 -2.7958E-06  1.7986E+00
global system                  -1.5020E-05  1.5223E-04  5.2149E-01  5.2149E-01
                                3.2899E-05  9.9072E+00  1.2500E+00  5.3977E+01

